
---------- Begin Simulation Statistics ----------
final_tick                                 4334570000                       # Number of ticks from beginning of simulation (restored from checkpoints and never reset)
host_inst_rate                                  79342                       # Simulator instruction rate (inst/s)
host_mem_usage                               34196432                       # Number of bytes of host memory used
host_op_rate                                   153806                       # Simulator op (including micro ops) rate (op/s)
host_seconds                                    12.61                       # Real time elapsed on the host
host_tick_rate                              343875069                       # Simulator tick rate (ticks/s)
sim_freq                                 1000000000000                       # Frequency of simulated ticks
sim_insts                                     1000094                       # Number of instructions simulated
sim_ops                                       1938721                       # Number of ops (including micro ops) simulated
sim_seconds                                  0.004335                       # Number of seconds simulated
sim_ticks                                  4334570000                       # Number of ticks simulated
system.cpu.Branches                            238858                       # Number of branches fetched
system.cpu.committedInsts                     1000094                       # Number of instructions committed
system.cpu.committedOps                       1938721                       # Number of ops (including micro ops) committed
system.cpu.dtb.rdAccesses                      211666                       # TLB accesses on read requests
system.cpu.dtb.rdMisses                            19                       # TLB misses on read requests
system.cpu.dtb.wrAccesses                      156151                       # TLB accesses on write requests
system.cpu.dtb.wrMisses                           213                       # TLB misses on write requests
system.cpu.idle_fraction                            0                       # Percentage of idle cycles
system.cpu.itb.rdAccesses                           0                       # TLB accesses on read requests
system.cpu.itb.rdMisses                             0                       # TLB misses on read requests
system.cpu.itb.wrAccesses                     1367761                       # TLB accesses on write requests
system.cpu.itb.wrMisses                            48                       # TLB misses on write requests
system.cpu.not_idle_fraction                        1                       # Percentage of non-idle cycles
system.cpu.numCycles                          4334559                       # number of cpu cycles simulated
system.cpu.numWorkItemsCompleted                    0                       # number of work items this cpu completed
system.cpu.numWorkItemsStarted                      0                       # number of work items this cpu started
system.cpu.num_busy_cycles                    4334559                       # Number of busy cycles
system.cpu.num_cc_register_reads              1244205                       # number of times the CC registers were read
system.cpu.num_cc_register_writes              594035                       # number of times the CC registers were written
system.cpu.num_conditional_control_insts       185365                       # number of instructions that are conditional controls
system.cpu.num_fp_alu_accesses                  17368                       # Number of float alu accesses
system.cpu.num_fp_insts                         17368                       # number of float instructions
system.cpu.num_fp_register_reads                26550                       # number of times the floating registers were read
system.cpu.num_fp_register_writes               14782                       # number of times the floating registers were written
system.cpu.num_func_calls                       21920                       # number of times a function call or return occured
system.cpu.num_idle_cycles                          0                       # Number of idle cycles
system.cpu.num_int_alu_accesses               1920215                       # Number of integer alu accesses
system.cpu.num_int_insts                      1920215                       # number of integer instructions
system.cpu.num_int_register_reads             3783721                       # number of times the integer registers were read
system.cpu.num_int_register_writes            1557749                       # number of times the integer registers were written
system.cpu.num_load_insts                      211564                       # Number of load instructions
system.cpu.num_mem_refs                        367715                       # number of memory refs
system.cpu.num_store_insts                     156151                       # Number of store instructions
system.cpu.num_vec_alu_accesses                     0                       # Number of vector alu accesses
system.cpu.num_vec_insts                            0                       # number of vector instructions
system.cpu.num_vec_register_reads                   0                       # number of times the vector registers were read
system.cpu.num_vec_register_writes                  0                       # number of times the vector registers were written
system.cpu.op_class::No_OpClass                  7156      0.37%      0.37% # Class of executed instruction
system.cpu.op_class::IntAlu                   1528200     78.82%     79.19% # Class of executed instruction
system.cpu.op_class::IntMult                    10892      0.56%     79.75% # Class of executed instruction
system.cpu.op_class::IntDiv                     11193      0.58%     80.33% # Class of executed instruction
system.cpu.op_class::FloatAdd                    1076      0.06%     80.38% # Class of executed instruction
system.cpu.op_class::FloatCmp                       0      0.00%     80.38% # Class of executed instruction
system.cpu.op_class::FloatCvt                       0      0.00%     80.38% # Class of executed instruction
system.cpu.op_class::FloatMult                      0      0.00%     80.38% # Class of executed instruction
system.cpu.op_class::FloatMultAcc                   0      0.00%     80.38% # Class of executed instruction
system.cpu.op_class::FloatDiv                       0      0.00%     80.38% # Class of executed instruction
system.cpu.op_class::FloatMisc                      0      0.00%     80.38% # Class of executed instruction
system.cpu.op_class::FloatSqrt                      0      0.00%     80.38% # Class of executed instruction
system.cpu.op_class::SimdAdd                        0      0.00%     80.38% # Class of executed instruction
system.cpu.op_class::SimdAddAcc                     0      0.00%     80.38% # Class of executed instruction
system.cpu.op_class::SimdAlu                      140      0.01%     80.39% # Class of executed instruction
system.cpu.op_class::SimdCmp                       14      0.00%     80.39% # Class of executed instruction
system.cpu.op_class::SimdCvt                     2474      0.13%     80.52% # Class of executed instruction
system.cpu.op_class::SimdMisc                    9966      0.51%     81.03% # Class of executed instruction
system.cpu.op_class::SimdMult                       0      0.00%     81.03% # Class of executed instruction
system.cpu.op_class::SimdMultAcc                    0      0.00%     81.03% # Class of executed instruction
system.cpu.op_class::SimdShift                      0      0.00%     81.03% # Class of executed instruction
system.cpu.op_class::SimdShiftAcc                   0      0.00%     81.03% # Class of executed instruction
system.cpu.op_class::SimdDiv                        0      0.00%     81.03% # Class of executed instruction
system.cpu.op_class::SimdSqrt                       0      0.00%     81.03% # Class of executed instruction
system.cpu.op_class::SimdFloatAdd                   0      0.00%     81.03% # Class of executed instruction
system.cpu.op_class::SimdFloatAlu                   0      0.00%     81.03% # Class of executed instruction
system.cpu.op_class::SimdFloatCmp                   0      0.00%     81.03% # Class of executed instruction
system.cpu.op_class::SimdFloatCvt                   0      0.00%     81.03% # Class of executed instruction
system.cpu.op_class::SimdFloatDiv                   0      0.00%     81.03% # Class of executed instruction
system.cpu.op_class::SimdFloatMisc                  0      0.00%     81.03% # Class of executed instruction
system.cpu.op_class::SimdFloatMult                  0      0.00%     81.03% # Class of executed instruction
system.cpu.op_class::SimdFloatMultAcc               0      0.00%     81.03% # Class of executed instruction
system.cpu.op_class::SimdFloatSqrt                  0      0.00%     81.03% # Class of executed instruction
system.cpu.op_class::SimdReduceAdd                  0      0.00%     81.03% # Class of executed instruction
system.cpu.op_class::SimdReduceAlu                  0      0.00%     81.03% # Class of executed instruction
system.cpu.op_class::SimdReduceCmp                  0      0.00%     81.03% # Class of executed instruction
system.cpu.op_class::SimdFloatReduceAdd             0      0.00%     81.03% # Class of executed instruction
system.cpu.op_class::SimdFloatReduceCmp             0      0.00%     81.03% # Class of executed instruction
system.cpu.op_class::SimdAes                        0      0.00%     81.03% # Class of executed instruction
system.cpu.op_class::SimdAesMix                     0      0.00%     81.03% # Class of executed instruction
system.cpu.op_class::SimdSha1Hash                   0      0.00%     81.03% # Class of executed instruction
system.cpu.op_class::SimdSha1Hash2                  0      0.00%     81.03% # Class of executed instruction
system.cpu.op_class::SimdSha256Hash                 0      0.00%     81.03% # Class of executed instruction
system.cpu.op_class::SimdSha256Hash2                0      0.00%     81.03% # Class of executed instruction
system.cpu.op_class::SimdShaSigma2                  0      0.00%     81.03% # Class of executed instruction
system.cpu.op_class::SimdShaSigma3                  0      0.00%     81.03% # Class of executed instruction
system.cpu.op_class::SimdPredAlu                    0      0.00%     81.03% # Class of executed instruction
system.cpu.op_class::MemRead                   209134     10.79%     91.82% # Class of executed instruction
system.cpu.op_class::MemWrite                  155999      8.05%     99.87% # Class of executed instruction
system.cpu.op_class::FloatMemRead                2430      0.13%     99.99% # Class of executed instruction
system.cpu.op_class::FloatMemWrite                152      0.01%    100.00% # Class of executed instruction
system.cpu.op_class::IprAccess                      0      0.00%    100.00% # Class of executed instruction
system.cpu.op_class::InstPrefetch                   0      0.00%    100.00% # Class of executed instruction
system.cpu.op_class::total                    1938826                       # Class of executed instruction
system.cpu.workload.numSyscalls                   142                       # Number of system calls
system.dynamic_cache.flushTicks                     0                       # Ticks taken to flush
system.dynamic_cache.numFlushes                     0                       # Number of Flushes Taken
system.cache_small.demand_hits::.cpu.inst         5713                       # number of demand (read+write) hits
system.cache_small.demand_hits::.cpu.data          429                       # number of demand (read+write) hits
system.cache_small.demand_hits::total            6142                       # number of demand (read+write) hits
system.cache_small.overall_hits::.cpu.inst         5713                       # number of overall hits
system.cache_small.overall_hits::.cpu.data          429                       # number of overall hits
system.cache_small.overall_hits::total           6142                       # number of overall hits
system.cache_small.demand_misses::.cpu.inst          603                       # number of demand (read+write) misses
system.cache_small.demand_misses::.cpu.data         3918                       # number of demand (read+write) misses
system.cache_small.demand_misses::total          4521                       # number of demand (read+write) misses
system.cache_small.overall_misses::.cpu.inst          603                       # number of overall misses
system.cache_small.overall_misses::.cpu.data         3918                       # number of overall misses
system.cache_small.overall_misses::total         4521                       # number of overall misses
system.cache_small.demand_miss_latency::.cpu.inst     37499000                       # number of demand (read+write) miss cycles
system.cache_small.demand_miss_latency::.cpu.data    251918000                       # number of demand (read+write) miss cycles
system.cache_small.demand_miss_latency::total    289417000                       # number of demand (read+write) miss cycles
system.cache_small.overall_miss_latency::.cpu.inst     37499000                       # number of overall miss cycles
system.cache_small.overall_miss_latency::.cpu.data    251918000                       # number of overall miss cycles
system.cache_small.overall_miss_latency::total    289417000                       # number of overall miss cycles
system.cache_small.demand_accesses::.cpu.inst         6316                       # number of demand (read+write) accesses
system.cache_small.demand_accesses::.cpu.data         4347                       # number of demand (read+write) accesses
system.cache_small.demand_accesses::total        10663                       # number of demand (read+write) accesses
system.cache_small.overall_accesses::.cpu.inst         6316                       # number of overall (read+write) accesses
system.cache_small.overall_accesses::.cpu.data         4347                       # number of overall (read+write) accesses
system.cache_small.overall_accesses::total        10663                       # number of overall (read+write) accesses
system.cache_small.demand_miss_rate::.cpu.inst     0.095472                       # miss rate for demand accesses
system.cache_small.demand_miss_rate::.cpu.data     0.901311                       # miss rate for demand accesses
system.cache_small.demand_miss_rate::total     0.423989                       # miss rate for demand accesses
system.cache_small.overall_miss_rate::.cpu.inst     0.095472                       # miss rate for overall accesses
system.cache_small.overall_miss_rate::.cpu.data     0.901311                       # miss rate for overall accesses
system.cache_small.overall_miss_rate::total     0.423989                       # miss rate for overall accesses
system.cache_small.demand_avg_miss_latency::.cpu.inst 62187.396352                       # average overall miss latency
system.cache_small.demand_avg_miss_latency::.cpu.data 64297.600817                       # average overall miss latency
system.cache_small.demand_avg_miss_latency::total 64016.146870                       # average overall miss latency
system.cache_small.overall_avg_miss_latency::.cpu.inst 62187.396352                       # average overall miss latency
system.cache_small.overall_avg_miss_latency::.cpu.data 64297.600817                       # average overall miss latency
system.cache_small.overall_avg_miss_latency::total 64016.146870                       # average overall miss latency
system.cache_small.blocked_cycles::no_mshrs            0                       # number of cycles access was blocked
system.cache_small.blocked_cycles::no_targets            0                       # number of cycles access was blocked
system.cache_small.blocked::no_mshrs                0                       # number of cycles access was blocked
system.cache_small.blocked::no_targets              0                       # number of cycles access was blocked
system.cache_small.avg_blocked_cycles::no_mshrs          nan                       # average number of cycles each access was blocked
system.cache_small.avg_blocked_cycles::no_targets          nan                       # average number of cycles each access was blocked
system.cache_small.writebacks::.writebacks          726                       # number of writebacks
system.cache_small.writebacks::total              726                       # number of writebacks
system.cache_small.demand_mshr_misses::.cpu.inst          603                       # number of demand (read+write) MSHR misses
system.cache_small.demand_mshr_misses::.cpu.data         3918                       # number of demand (read+write) MSHR misses
system.cache_small.demand_mshr_misses::total         4521                       # number of demand (read+write) MSHR misses
system.cache_small.overall_mshr_misses::.cpu.inst          603                       # number of overall MSHR misses
system.cache_small.overall_mshr_misses::.cpu.data         3918                       # number of overall MSHR misses
system.cache_small.overall_mshr_misses::total         4521                       # number of overall MSHR misses
system.cache_small.demand_mshr_miss_latency::.cpu.inst     36293000                       # number of demand (read+write) MSHR miss cycles
system.cache_small.demand_mshr_miss_latency::.cpu.data    244082000                       # number of demand (read+write) MSHR miss cycles
system.cache_small.demand_mshr_miss_latency::total    280375000                       # number of demand (read+write) MSHR miss cycles
system.cache_small.overall_mshr_miss_latency::.cpu.inst     36293000                       # number of overall MSHR miss cycles
system.cache_small.overall_mshr_miss_latency::.cpu.data    244082000                       # number of overall MSHR miss cycles
system.cache_small.overall_mshr_miss_latency::total    280375000                       # number of overall MSHR miss cycles
system.cache_small.demand_mshr_miss_rate::.cpu.inst     0.095472                       # mshr miss rate for demand accesses
system.cache_small.demand_mshr_miss_rate::.cpu.data     0.901311                       # mshr miss rate for demand accesses
system.cache_small.demand_mshr_miss_rate::total     0.423989                       # mshr miss rate for demand accesses
system.cache_small.overall_mshr_miss_rate::.cpu.inst     0.095472                       # mshr miss rate for overall accesses
system.cache_small.overall_mshr_miss_rate::.cpu.data     0.901311                       # mshr miss rate for overall accesses
system.cache_small.overall_mshr_miss_rate::total     0.423989                       # mshr miss rate for overall accesses
system.cache_small.demand_avg_mshr_miss_latency::.cpu.inst 60187.396352                       # average overall mshr miss latency
system.cache_small.demand_avg_mshr_miss_latency::.cpu.data 62297.600817                       # average overall mshr miss latency
system.cache_small.demand_avg_mshr_miss_latency::total 62016.146870                       # average overall mshr miss latency
system.cache_small.overall_avg_mshr_miss_latency::.cpu.inst 60187.396352                       # average overall mshr miss latency
system.cache_small.overall_avg_mshr_miss_latency::.cpu.data 62297.600817                       # average overall mshr miss latency
system.cache_small.overall_avg_mshr_miss_latency::total 62016.146870                       # average overall mshr miss latency
system.cache_small.replacements                  1619                       # number of replacements
system.cache_small.ReadReq_hits::.cpu.inst         5713                       # number of ReadReq hits
system.cache_small.ReadReq_hits::.cpu.data          429                       # number of ReadReq hits
system.cache_small.ReadReq_hits::total           6142                       # number of ReadReq hits
system.cache_small.ReadReq_misses::.cpu.inst          603                       # number of ReadReq misses
system.cache_small.ReadReq_misses::.cpu.data         3918                       # number of ReadReq misses
system.cache_small.ReadReq_misses::total         4521                       # number of ReadReq misses
system.cache_small.ReadReq_miss_latency::.cpu.inst     37499000                       # number of ReadReq miss cycles
system.cache_small.ReadReq_miss_latency::.cpu.data    251918000                       # number of ReadReq miss cycles
system.cache_small.ReadReq_miss_latency::total    289417000                       # number of ReadReq miss cycles
system.cache_small.ReadReq_accesses::.cpu.inst         6316                       # number of ReadReq accesses(hits+misses)
system.cache_small.ReadReq_accesses::.cpu.data         4347                       # number of ReadReq accesses(hits+misses)
system.cache_small.ReadReq_accesses::total        10663                       # number of ReadReq accesses(hits+misses)
system.cache_small.ReadReq_miss_rate::.cpu.inst     0.095472                       # miss rate for ReadReq accesses
system.cache_small.ReadReq_miss_rate::.cpu.data     0.901311                       # miss rate for ReadReq accesses
system.cache_small.ReadReq_miss_rate::total     0.423989                       # miss rate for ReadReq accesses
system.cache_small.ReadReq_avg_miss_latency::.cpu.inst 62187.396352                       # average ReadReq miss latency
system.cache_small.ReadReq_avg_miss_latency::.cpu.data 64297.600817                       # average ReadReq miss latency
system.cache_small.ReadReq_avg_miss_latency::total 64016.146870                       # average ReadReq miss latency
system.cache_small.ReadReq_mshr_misses::.cpu.inst          603                       # number of ReadReq MSHR misses
system.cache_small.ReadReq_mshr_misses::.cpu.data         3918                       # number of ReadReq MSHR misses
system.cache_small.ReadReq_mshr_misses::total         4521                       # number of ReadReq MSHR misses
system.cache_small.ReadReq_mshr_miss_latency::.cpu.inst     36293000                       # number of ReadReq MSHR miss cycles
system.cache_small.ReadReq_mshr_miss_latency::.cpu.data    244082000                       # number of ReadReq MSHR miss cycles
system.cache_small.ReadReq_mshr_miss_latency::total    280375000                       # number of ReadReq MSHR miss cycles
system.cache_small.ReadReq_mshr_miss_rate::.cpu.inst     0.095472                       # mshr miss rate for ReadReq accesses
system.cache_small.ReadReq_mshr_miss_rate::.cpu.data     0.901311                       # mshr miss rate for ReadReq accesses
system.cache_small.ReadReq_mshr_miss_rate::total     0.423989                       # mshr miss rate for ReadReq accesses
system.cache_small.ReadReq_avg_mshr_miss_latency::.cpu.inst 60187.396352                       # average ReadReq mshr miss latency
system.cache_small.ReadReq_avg_mshr_miss_latency::.cpu.data 62297.600817                       # average ReadReq mshr miss latency
system.cache_small.ReadReq_avg_mshr_miss_latency::total 62016.146870                       # average ReadReq mshr miss latency
system.cache_small.WritebackDirty_hits::.writebacks         3877                       # number of WritebackDirty hits
system.cache_small.WritebackDirty_hits::total         3877                       # number of WritebackDirty hits
system.cache_small.WritebackDirty_accesses::.writebacks         3877                       # number of WritebackDirty accesses(hits+misses)
system.cache_small.WritebackDirty_accesses::total         3877                       # number of WritebackDirty accesses(hits+misses)
system.cache_small.power_state.pwrStateResidencyTicks::UNDEFINED   4334570000                       # Cumulative time (in ticks) in various power states
system.cache_small.tags.tagsinuse         2063.406445                       # Cycle average of tags in use
system.cache_small.tags.total_refs               5118                       # Total number of references to valid blocks.
system.cache_small.tags.sampled_refs             1619                       # Sample count of references to valid blocks.
system.cache_small.tags.avg_refs             3.161211                       # Average number of references to valid blocks.
system.cache_small.tags.warmup_cycle            76000                       # Cycle when the warmup percentage was hit.
system.cache_small.tags.occ_blocks::.writebacks    58.884690                       # Average occupied blocks per requestor
system.cache_small.tags.occ_blocks::.cpu.inst   327.455607                       # Average occupied blocks per requestor
system.cache_small.tags.occ_blocks::.cpu.data  1677.066148                       # Average occupied blocks per requestor
system.cache_small.tags.occ_percent::.writebacks     0.014376                       # Average percentage of cache occupancy
system.cache_small.tags.occ_percent::.cpu.inst     0.079945                       # Average percentage of cache occupancy
system.cache_small.tags.occ_percent::.cpu.data     0.409440                       # Average percentage of cache occupancy
system.cache_small.tags.occ_percent::total     0.503761                       # Average percentage of cache occupancy
system.cache_small.tags.occ_task_id_blocks::1024         3268                       # Occupied blocks per task id
system.cache_small.tags.age_task_id_blocks_1024::0            7                       # Occupied blocks per task id
system.cache_small.tags.age_task_id_blocks_1024::1           79                       # Occupied blocks per task id
system.cache_small.tags.age_task_id_blocks_1024::2          767                       # Occupied blocks per task id
system.cache_small.tags.age_task_id_blocks_1024::3         2415                       # Occupied blocks per task id
system.cache_small.tags.occ_task_id_percent::1024     0.797852                       # Percentage of cache occupancy per task id
system.cache_small.tags.tag_accesses            19427                       # Number of tag accesses
system.cache_small.tags.data_accesses           19427                       # Number of data accesses
system.cache_small.tags.power_state.pwrStateResidencyTicks::UNDEFINED   4334570000                       # Cumulative time (in ticks) in various power states
system.icache.demand_hits::.cpu.inst          1338687                       # number of demand (read+write) hits
system.icache.demand_hits::total              1338687                       # number of demand (read+write) hits
system.icache.overall_hits::.cpu.inst         1338687                       # number of overall hits
system.icache.overall_hits::total             1338687                       # number of overall hits
system.icache.demand_misses::.cpu.inst          29074                       # number of demand (read+write) misses
system.icache.demand_misses::total              29074                       # number of demand (read+write) misses
system.icache.overall_misses::.cpu.inst         29074                       # number of overall misses
system.icache.overall_misses::total             29074                       # number of overall misses
system.icache.demand_miss_latency::.cpu.inst    499258000                       # number of demand (read+write) miss cycles
system.icache.demand_miss_latency::total    499258000                       # number of demand (read+write) miss cycles
system.icache.overall_miss_latency::.cpu.inst    499258000                       # number of overall miss cycles
system.icache.overall_miss_latency::total    499258000                       # number of overall miss cycles
system.icache.demand_accesses::.cpu.inst      1367761                       # number of demand (read+write) accesses
system.icache.demand_accesses::total          1367761                       # number of demand (read+write) accesses
system.icache.overall_accesses::.cpu.inst      1367761                       # number of overall (read+write) accesses
system.icache.overall_accesses::total         1367761                       # number of overall (read+write) accesses
system.icache.demand_miss_rate::.cpu.inst     0.021257                       # miss rate for demand accesses
system.icache.demand_miss_rate::total        0.021257                       # miss rate for demand accesses
system.icache.overall_miss_rate::.cpu.inst     0.021257                       # miss rate for overall accesses
system.icache.overall_miss_rate::total       0.021257                       # miss rate for overall accesses
system.icache.demand_avg_miss_latency::.cpu.inst 17171.974960                       # average overall miss latency
system.icache.demand_avg_miss_latency::total 17171.974960                       # average overall miss latency
system.icache.overall_avg_miss_latency::.cpu.inst 17171.974960                       # average overall miss latency
system.icache.overall_avg_miss_latency::total 17171.974960                       # average overall miss latency
system.icache.blocked_cycles::no_mshrs              0                       # number of cycles access was blocked
system.icache.blocked_cycles::no_targets            0                       # number of cycles access was blocked
system.icache.blocked::no_mshrs                     0                       # number of cycles access was blocked
system.icache.blocked::no_targets                   0                       # number of cycles access was blocked
system.icache.avg_blocked_cycles::no_mshrs          nan                       # average number of cycles each access was blocked
system.icache.avg_blocked_cycles::no_targets          nan                       # average number of cycles each access was blocked
system.icache.demand_mshr_misses::.cpu.inst        29074                       # number of demand (read+write) MSHR misses
system.icache.demand_mshr_misses::total         29074                       # number of demand (read+write) MSHR misses
system.icache.overall_mshr_misses::.cpu.inst        29074                       # number of overall MSHR misses
system.icache.overall_mshr_misses::total        29074                       # number of overall MSHR misses
system.icache.demand_mshr_miss_latency::.cpu.inst    441112000                       # number of demand (read+write) MSHR miss cycles
system.icache.demand_mshr_miss_latency::total    441112000                       # number of demand (read+write) MSHR miss cycles
system.icache.overall_mshr_miss_latency::.cpu.inst    441112000                       # number of overall MSHR miss cycles
system.icache.overall_mshr_miss_latency::total    441112000                       # number of overall MSHR miss cycles
system.icache.demand_mshr_miss_rate::.cpu.inst     0.021257                       # mshr miss rate for demand accesses
system.icache.demand_mshr_miss_rate::total     0.021257                       # mshr miss rate for demand accesses
system.icache.overall_mshr_miss_rate::.cpu.inst     0.021257                       # mshr miss rate for overall accesses
system.icache.overall_mshr_miss_rate::total     0.021257                       # mshr miss rate for overall accesses
system.icache.demand_avg_mshr_miss_latency::.cpu.inst 15172.043750                       # average overall mshr miss latency
system.icache.demand_avg_mshr_miss_latency::total 15172.043750                       # average overall mshr miss latency
system.icache.overall_avg_mshr_miss_latency::.cpu.inst 15172.043750                       # average overall mshr miss latency
system.icache.overall_avg_mshr_miss_latency::total 15172.043750                       # average overall mshr miss latency
system.icache.replacements                      28856                       # number of replacements
system.icache.ReadReq_hits::.cpu.inst         1338687                       # number of ReadReq hits
system.icache.ReadReq_hits::total             1338687                       # number of ReadReq hits
system.icache.ReadReq_misses::.cpu.inst         29074                       # number of ReadReq misses
system.icache.ReadReq_misses::total             29074                       # number of ReadReq misses
system.icache.ReadReq_miss_latency::.cpu.inst    499258000                       # number of ReadReq miss cycles
system.icache.ReadReq_miss_latency::total    499258000                       # number of ReadReq miss cycles
system.icache.ReadReq_accesses::.cpu.inst      1367761                       # number of ReadReq accesses(hits+misses)
system.icache.ReadReq_accesses::total         1367761                       # number of ReadReq accesses(hits+misses)
system.icache.ReadReq_miss_rate::.cpu.inst     0.021257                       # miss rate for ReadReq accesses
system.icache.ReadReq_miss_rate::total       0.021257                       # miss rate for ReadReq accesses
system.icache.ReadReq_avg_miss_latency::.cpu.inst 17171.974960                       # average ReadReq miss latency
system.icache.ReadReq_avg_miss_latency::total 17171.974960                       # average ReadReq miss latency
system.icache.ReadReq_mshr_misses::.cpu.inst        29074                       # number of ReadReq MSHR misses
system.icache.ReadReq_mshr_misses::total        29074                       # number of ReadReq MSHR misses
system.icache.ReadReq_mshr_miss_latency::.cpu.inst    441112000                       # number of ReadReq MSHR miss cycles
system.icache.ReadReq_mshr_miss_latency::total    441112000                       # number of ReadReq MSHR miss cycles
system.icache.ReadReq_mshr_miss_rate::.cpu.inst     0.021257                       # mshr miss rate for ReadReq accesses
system.icache.ReadReq_mshr_miss_rate::total     0.021257                       # mshr miss rate for ReadReq accesses
system.icache.ReadReq_avg_mshr_miss_latency::.cpu.inst 15172.043750                       # average ReadReq mshr miss latency
system.icache.ReadReq_avg_mshr_miss_latency::total 15172.043750                       # average ReadReq mshr miss latency
system.icache.power_state.pwrStateResidencyTicks::UNDEFINED   4334570000                       # Cumulative time (in ticks) in various power states
system.icache.tags.tagsinuse               215.376880                       # Cycle average of tags in use
system.icache.tags.total_refs                  664175                       # Total number of references to valid blocks.
system.icache.tags.sampled_refs                 28856                       # Sample count of references to valid blocks.
system.icache.tags.avg_refs                 23.016877                       # Average number of references to valid blocks.
system.icache.tags.warmup_cycle                 82000                       # Cycle when the warmup percentage was hit.
system.icache.tags.occ_blocks::.cpu.inst   215.376880                       # Average occupied blocks per requestor
system.icache.tags.occ_percent::.cpu.inst     0.841316                       # Average percentage of cache occupancy
system.icache.tags.occ_percent::total        0.841316                       # Average percentage of cache occupancy
system.icache.tags.occ_task_id_blocks::1024          217                       # Occupied blocks per task id
system.icache.tags.age_task_id_blocks_1024::0           19                       # Occupied blocks per task id
system.icache.tags.age_task_id_blocks_1024::3          198                       # Occupied blocks per task id
system.icache.tags.occ_task_id_percent::1024     0.847656                       # Percentage of cache occupancy per task id
system.icache.tags.tag_accesses               1396834                       # Number of tag accesses
system.icache.tags.data_accesses              1396834                       # Number of data accesses
system.icache.tags.power_state.pwrStateResidencyTicks::UNDEFINED   4334570000                       # Cumulative time (in ticks) in various power states
system.membus.trans_dist::ReadReq                4521                       # Transaction distribution
system.membus.trans_dist::ReadResp               4521                       # Transaction distribution
system.membus.trans_dist::WritebackDirty          726                       # Transaction distribution
system.membus.pkt_count_system.cache_small.mem_side::system.mem_ctrl.port         9768                       # Packet count per connected master and slave (bytes)
system.membus.pkt_count_system.cache_small.mem_side::total         9768                       # Packet count per connected master and slave (bytes)
system.membus.pkt_count::total                   9768                       # Packet count per connected master and slave (bytes)
system.membus.pkt_size_system.cache_small.mem_side::system.mem_ctrl.port       335808                       # Cumulative packet size per connected master and slave (bytes)
system.membus.pkt_size_system.cache_small.mem_side::total       335808                       # Cumulative packet size per connected master and slave (bytes)
system.membus.pkt_size::total                  335808                       # Cumulative packet size per connected master and slave (bytes)
system.membus.reqLayer2.occupancy             8151000                       # Layer occupancy (ticks)
system.membus.reqLayer2.utilization               0.2                       # Layer utilization (%)
system.membus.respLayer1.occupancy           24496250                       # Layer occupancy (ticks)
system.membus.respLayer1.utilization              0.6                       # Layer utilization (%)
system.membus.power_state.pwrStateResidencyTicks::UNDEFINED   4334570000                       # Cumulative time (in ticks) in various power states
system.mem_ctrl.bytes_read::.cpu.inst           38592                       # Number of bytes read from this memory
system.mem_ctrl.bytes_read::.cpu.data          250752                       # Number of bytes read from this memory
system.mem_ctrl.bytes_read::total              289344                       # Number of bytes read from this memory
system.mem_ctrl.bytes_inst_read::.cpu.inst        38592                       # Number of instructions bytes read from this memory
system.mem_ctrl.bytes_inst_read::total          38592                       # Number of instructions bytes read from this memory
system.mem_ctrl.bytes_written::.writebacks        46464                       # Number of bytes written to this memory
system.mem_ctrl.bytes_written::total            46464                       # Number of bytes written to this memory
system.mem_ctrl.num_reads::.cpu.inst              603                       # Number of read requests responded to by this memory
system.mem_ctrl.num_reads::.cpu.data             3918                       # Number of read requests responded to by this memory
system.mem_ctrl.num_reads::total                 4521                       # Number of read requests responded to by this memory
system.mem_ctrl.num_writes::.writebacks           726                       # Number of write requests responded to by this memory
system.mem_ctrl.num_writes::total                 726                       # Number of write requests responded to by this memory
system.mem_ctrl.bw_read::.cpu.inst            8903305                       # Total read bandwidth from this memory (bytes/s)
system.mem_ctrl.bw_read::.cpu.data           57849337                       # Total read bandwidth from this memory (bytes/s)
system.mem_ctrl.bw_read::total               66752642                       # Total read bandwidth from this memory (bytes/s)
system.mem_ctrl.bw_inst_read::.cpu.inst       8903305                       # Instruction read bandwidth from this memory (bytes/s)
system.mem_ctrl.bw_inst_read::total           8903305                       # Instruction read bandwidth from this memory (bytes/s)
system.mem_ctrl.bw_write::.writebacks        10719402                       # Write bandwidth from this memory (bytes/s)
system.mem_ctrl.bw_write::total              10719402                       # Write bandwidth from this memory (bytes/s)
system.mem_ctrl.bw_total::.writebacks        10719402                       # Total bandwidth to/from this memory (bytes/s)
system.mem_ctrl.bw_total::.cpu.inst           8903305                       # Total bandwidth to/from this memory (bytes/s)
system.mem_ctrl.bw_total::.cpu.data          57849337                       # Total bandwidth to/from this memory (bytes/s)
system.mem_ctrl.bw_total::total              77472045                       # Total bandwidth to/from this memory (bytes/s)
system.mem_ctrl.avgPriority_.writebacks::samples       705.00                       # Average QoS priority value for accepted requests
system.mem_ctrl.avgPriority_.cpu.inst::samples       603.00                       # Average QoS priority value for accepted requests
system.mem_ctrl.avgPriority_.cpu.data::samples      3904.00                       # Average QoS priority value for accepted requests
system.mem_ctrl.priorityMinLatency       0.000000018750                       # per QoS priority minimum request to response latency (s)
system.mem_ctrl.priorityMaxLatency       0.001799426500                       # per QoS priority maximum request to response latency (s)
system.mem_ctrl.numReadWriteTurnArounds            40                       # Number of turnarounds from READ to WRITE
system.mem_ctrl.numWriteReadTurnArounds            40                       # Number of turnarounds from WRITE to READ
system.mem_ctrl.numStayReadState                10830                       # Number of times bus staying in READ state
system.mem_ctrl.numStayWriteState                 651                       # Number of times bus staying in WRITE state
system.mem_ctrl.readReqs                         4521                       # Number of read requests accepted
system.mem_ctrl.writeReqs                         726                       # Number of write requests accepted
system.mem_ctrl.readBursts                       4521                       # Number of DRAM read bursts, including those serviced by the write queue
system.mem_ctrl.writeBursts                       726                       # Number of DRAM write bursts, including those merged in the write queue
system.mem_ctrl.servicedByWrQ                      14                       # Number of DRAM read bursts serviced by the write queue
system.mem_ctrl.mergedWrBursts                     21                       # Number of DRAM write bursts merged with an existing one
system.mem_ctrl.neitherReadNorWriteReqs             0                       # Number of requests that are neither read nor write
system.mem_ctrl.perBankRdBursts::0                371                       # Per bank write bursts
system.mem_ctrl.perBankRdBursts::1                189                       # Per bank write bursts
system.mem_ctrl.perBankRdBursts::2                190                       # Per bank write bursts
system.mem_ctrl.perBankRdBursts::3                275                       # Per bank write bursts
system.mem_ctrl.perBankRdBursts::4                354                       # Per bank write bursts
system.mem_ctrl.perBankRdBursts::5                224                       # Per bank write bursts
system.mem_ctrl.perBankRdBursts::6                200                       # Per bank write bursts
system.mem_ctrl.perBankRdBursts::7                284                       # Per bank write bursts
system.mem_ctrl.perBankRdBursts::8                325                       # Per bank write bursts
system.mem_ctrl.perBankRdBursts::9                290                       # Per bank write bursts
system.mem_ctrl.perBankRdBursts::10               344                       # Per bank write bursts
system.mem_ctrl.perBankRdBursts::11               324                       # Per bank write bursts
system.mem_ctrl.perBankRdBursts::12               203                       # Per bank write bursts
system.mem_ctrl.perBankRdBursts::13               363                       # Per bank write bursts
system.mem_ctrl.perBankRdBursts::14               388                       # Per bank write bursts
system.mem_ctrl.perBankRdBursts::15               183                       # Per bank write bursts
system.mem_ctrl.perBankWrBursts::0                 39                       # Per bank write bursts
system.mem_ctrl.perBankWrBursts::1                  4                       # Per bank write bursts
system.mem_ctrl.perBankWrBursts::2                 15                       # Per bank write bursts
system.mem_ctrl.perBankWrBursts::3                 36                       # Per bank write bursts
system.mem_ctrl.perBankWrBursts::4                 58                       # Per bank write bursts
system.mem_ctrl.perBankWrBursts::5                 31                       # Per bank write bursts
system.mem_ctrl.perBankWrBursts::6                 14                       # Per bank write bursts
system.mem_ctrl.perBankWrBursts::7                 43                       # Per bank write bursts
system.mem_ctrl.perBankWrBursts::8                 87                       # Per bank write bursts
system.mem_ctrl.perBankWrBursts::9                 44                       # Per bank write bursts
system.mem_ctrl.perBankWrBursts::10               102                       # Per bank write bursts
system.mem_ctrl.perBankWrBursts::11                48                       # Per bank write bursts
system.mem_ctrl.perBankWrBursts::12                25                       # Per bank write bursts
system.mem_ctrl.perBankWrBursts::13                46                       # Per bank write bursts
system.mem_ctrl.perBankWrBursts::14                95                       # Per bank write bursts
system.mem_ctrl.perBankWrBursts::15                 2                       # Per bank write bursts
system.mem_ctrl.avgRdQLen                        1.00                       # Average read queue length when enqueuing
system.mem_ctrl.avgWrQLen                       20.22                       # Average write queue length when enqueuing
system.mem_ctrl.totQLat                      53966500                       # Total ticks spent queuing
system.mem_ctrl.totBusLat                    22535000                       # Total ticks spent in databus transfers
system.mem_ctrl.totMemAccLat                138472750                       # Total ticks spent from burst creation until serviced by the DRAM
system.mem_ctrl.avgQLat                      11973.93                       # Average queueing delay per DRAM burst
system.mem_ctrl.avgBusLat                     5000.00                       # Average bus latency per DRAM burst
system.mem_ctrl.avgMemAccLat                 30723.93                       # Average memory access latency per DRAM burst
system.mem_ctrl.numRdRetry                          0                       # Number of times read queue was full causing retry
system.mem_ctrl.numWrRetry                          0                       # Number of times write queue was full causing retry
system.mem_ctrl.readRowHits                      1760                       # Number of row buffer hits during reads
system.mem_ctrl.writeRowHits                      497                       # Number of row buffer hits during writes
system.mem_ctrl.readRowHitRate                  39.05                       # Row buffer hit rate for reads
system.mem_ctrl.writeRowHitRate                 70.50                       # Row buffer hit rate for writes
system.mem_ctrl.readPktSize::0                      0                       # Read request sizes (log2)
system.mem_ctrl.readPktSize::1                      0                       # Read request sizes (log2)
system.mem_ctrl.readPktSize::2                      0                       # Read request sizes (log2)
system.mem_ctrl.readPktSize::3                      0                       # Read request sizes (log2)
system.mem_ctrl.readPktSize::4                      0                       # Read request sizes (log2)
system.mem_ctrl.readPktSize::5                      0                       # Read request sizes (log2)
system.mem_ctrl.readPktSize::6                   4521                       # Read request sizes (log2)
system.mem_ctrl.writePktSize::0                     0                       # Write request sizes (log2)
system.mem_ctrl.writePktSize::1                     0                       # Write request sizes (log2)
system.mem_ctrl.writePktSize::2                     0                       # Write request sizes (log2)
system.mem_ctrl.writePktSize::3                     0                       # Write request sizes (log2)
system.mem_ctrl.writePktSize::4                     0                       # Write request sizes (log2)
system.mem_ctrl.writePktSize::5                     0                       # Write request sizes (log2)
system.mem_ctrl.writePktSize::6                   726                       # Write request sizes (log2)
system.mem_ctrl.rdQLenPdf::0                     4507                       # What read queue length does an incoming req see
system.mem_ctrl.rdQLenPdf::1                        0                       # What read queue length does an incoming req see
system.mem_ctrl.rdQLenPdf::2                        0                       # What read queue length does an incoming req see
system.mem_ctrl.rdQLenPdf::3                        0                       # What read queue length does an incoming req see
system.mem_ctrl.rdQLenPdf::4                        0                       # What read queue length does an incoming req see
system.mem_ctrl.rdQLenPdf::5                        0                       # What read queue length does an incoming req see
system.mem_ctrl.rdQLenPdf::6                        0                       # What read queue length does an incoming req see
system.mem_ctrl.rdQLenPdf::7                        0                       # What read queue length does an incoming req see
system.mem_ctrl.rdQLenPdf::8                        0                       # What read queue length does an incoming req see
system.mem_ctrl.rdQLenPdf::9                        0                       # What read queue length does an incoming req see
system.mem_ctrl.rdQLenPdf::10                       0                       # What read queue length does an incoming req see
system.mem_ctrl.rdQLenPdf::11                       0                       # What read queue length does an incoming req see
system.mem_ctrl.rdQLenPdf::12                       0                       # What read queue length does an incoming req see
system.mem_ctrl.rdQLenPdf::13                       0                       # What read queue length does an incoming req see
system.mem_ctrl.rdQLenPdf::14                       0                       # What read queue length does an incoming req see
system.mem_ctrl.rdQLenPdf::15                       0                       # What read queue length does an incoming req see
system.mem_ctrl.rdQLenPdf::16                       0                       # What read queue length does an incoming req see
system.mem_ctrl.rdQLenPdf::17                       0                       # What read queue length does an incoming req see
system.mem_ctrl.rdQLenPdf::18                       0                       # What read queue length does an incoming req see
system.mem_ctrl.rdQLenPdf::19                       0                       # What read queue length does an incoming req see
system.mem_ctrl.rdQLenPdf::20                       0                       # What read queue length does an incoming req see
system.mem_ctrl.rdQLenPdf::21                       0                       # What read queue length does an incoming req see
system.mem_ctrl.rdQLenPdf::22                       0                       # What read queue length does an incoming req see
system.mem_ctrl.rdQLenPdf::23                       0                       # What read queue length does an incoming req see
system.mem_ctrl.rdQLenPdf::24                       0                       # What read queue length does an incoming req see
system.mem_ctrl.rdQLenPdf::25                       0                       # What read queue length does an incoming req see
system.mem_ctrl.rdQLenPdf::26                       0                       # What read queue length does an incoming req see
system.mem_ctrl.rdQLenPdf::27                       0                       # What read queue length does an incoming req see
system.mem_ctrl.rdQLenPdf::28                       0                       # What read queue length does an incoming req see
system.mem_ctrl.rdQLenPdf::29                       0                       # What read queue length does an incoming req see
system.mem_ctrl.rdQLenPdf::30                       0                       # What read queue length does an incoming req see
system.mem_ctrl.rdQLenPdf::31                       0                       # What read queue length does an incoming req see
system.mem_ctrl.wrQLenPdf::0                        1                       # What write queue length does an incoming req see
system.mem_ctrl.wrQLenPdf::1                        1                       # What write queue length does an incoming req see
system.mem_ctrl.wrQLenPdf::2                        1                       # What write queue length does an incoming req see
system.mem_ctrl.wrQLenPdf::3                        1                       # What write queue length does an incoming req see
system.mem_ctrl.wrQLenPdf::4                        1                       # What write queue length does an incoming req see
system.mem_ctrl.wrQLenPdf::5                        1                       # What write queue length does an incoming req see
system.mem_ctrl.wrQLenPdf::6                        1                       # What write queue length does an incoming req see
system.mem_ctrl.wrQLenPdf::7                        1                       # What write queue length does an incoming req see
system.mem_ctrl.wrQLenPdf::8                        1                       # What write queue length does an incoming req see
system.mem_ctrl.wrQLenPdf::9                        1                       # What write queue length does an incoming req see
system.mem_ctrl.wrQLenPdf::10                       1                       # What write queue length does an incoming req see
system.mem_ctrl.wrQLenPdf::11                       1                       # What write queue length does an incoming req see
system.mem_ctrl.wrQLenPdf::12                       1                       # What write queue length does an incoming req see
system.mem_ctrl.wrQLenPdf::13                       1                       # What write queue length does an incoming req see
system.mem_ctrl.wrQLenPdf::14                       1                       # What write queue length does an incoming req see
system.mem_ctrl.wrQLenPdf::15                      24                       # What write queue length does an incoming req see
system.mem_ctrl.wrQLenPdf::16                      26                       # What write queue length does an incoming req see
system.mem_ctrl.wrQLenPdf::17                      40                       # What write queue length does an incoming req see
system.mem_ctrl.wrQLenPdf::18                      40                       # What write queue length does an incoming req see
system.mem_ctrl.wrQLenPdf::19                      40                       # What write queue length does an incoming req see
system.mem_ctrl.wrQLenPdf::20                      40                       # What write queue length does an incoming req see
system.mem_ctrl.wrQLenPdf::21                      40                       # What write queue length does an incoming req see
system.mem_ctrl.wrQLenPdf::22                      40                       # What write queue length does an incoming req see
system.mem_ctrl.wrQLenPdf::23                      40                       # What write queue length does an incoming req see
system.mem_ctrl.wrQLenPdf::24                      40                       # What write queue length does an incoming req see
system.mem_ctrl.wrQLenPdf::25                      40                       # What write queue length does an incoming req see
system.mem_ctrl.wrQLenPdf::26                      40                       # What write queue length does an incoming req see
system.mem_ctrl.wrQLenPdf::27                      40                       # What write queue length does an incoming req see
system.mem_ctrl.wrQLenPdf::28                      40                       # What write queue length does an incoming req see
system.mem_ctrl.wrQLenPdf::29                      40                       # What write queue length does an incoming req see
system.mem_ctrl.wrQLenPdf::30                      40                       # What write queue length does an incoming req see
system.mem_ctrl.wrQLenPdf::31                      40                       # What write queue length does an incoming req see
system.mem_ctrl.wrQLenPdf::32                      40                       # What write queue length does an incoming req see
system.mem_ctrl.wrQLenPdf::33                       0                       # What write queue length does an incoming req see
system.mem_ctrl.wrQLenPdf::34                       0                       # What write queue length does an incoming req see
system.mem_ctrl.wrQLenPdf::35                       0                       # What write queue length does an incoming req see
system.mem_ctrl.wrQLenPdf::36                       0                       # What write queue length does an incoming req see
system.mem_ctrl.wrQLenPdf::37                       0                       # What write queue length does an incoming req see
system.mem_ctrl.wrQLenPdf::38                       0                       # What write queue length does an incoming req see
system.mem_ctrl.wrQLenPdf::39                       0                       # What write queue length does an incoming req see
system.mem_ctrl.wrQLenPdf::40                       0                       # What write queue length does an incoming req see
system.mem_ctrl.wrQLenPdf::41                       0                       # What write queue length does an incoming req see
system.mem_ctrl.wrQLenPdf::42                       0                       # What write queue length does an incoming req see
system.mem_ctrl.wrQLenPdf::43                       0                       # What write queue length does an incoming req see
system.mem_ctrl.wrQLenPdf::44                       0                       # What write queue length does an incoming req see
system.mem_ctrl.wrQLenPdf::45                       0                       # What write queue length does an incoming req see
system.mem_ctrl.wrQLenPdf::46                       0                       # What write queue length does an incoming req see
system.mem_ctrl.wrQLenPdf::47                       0                       # What write queue length does an incoming req see
system.mem_ctrl.wrQLenPdf::48                       0                       # What write queue length does an incoming req see
system.mem_ctrl.wrQLenPdf::49                       0                       # What write queue length does an incoming req see
system.mem_ctrl.wrQLenPdf::50                       0                       # What write queue length does an incoming req see
system.mem_ctrl.wrQLenPdf::51                       0                       # What write queue length does an incoming req see
system.mem_ctrl.wrQLenPdf::52                       0                       # What write queue length does an incoming req see
system.mem_ctrl.wrQLenPdf::53                       0                       # What write queue length does an incoming req see
system.mem_ctrl.wrQLenPdf::54                       0                       # What write queue length does an incoming req see
system.mem_ctrl.wrQLenPdf::55                       0                       # What write queue length does an incoming req see
system.mem_ctrl.wrQLenPdf::56                       0                       # What write queue length does an incoming req see
system.mem_ctrl.wrQLenPdf::57                       0                       # What write queue length does an incoming req see
system.mem_ctrl.wrQLenPdf::58                       0                       # What write queue length does an incoming req see
system.mem_ctrl.wrQLenPdf::59                       0                       # What write queue length does an incoming req see
system.mem_ctrl.wrQLenPdf::60                       0                       # What write queue length does an incoming req see
system.mem_ctrl.wrQLenPdf::61                       0                       # What write queue length does an incoming req see
system.mem_ctrl.wrQLenPdf::62                       0                       # What write queue length does an incoming req see
system.mem_ctrl.wrQLenPdf::63                       0                       # What write queue length does an incoming req see
system.mem_ctrl.bytesPerActivate::samples         2939                       # Bytes accessed per row activation
system.mem_ctrl.bytesPerActivate::mean     113.148690                       # Bytes accessed per row activation
system.mem_ctrl.bytesPerActivate::gmean     93.090343                       # Bytes accessed per row activation
system.mem_ctrl.bytesPerActivate::stdev    110.421178                       # Bytes accessed per row activation
system.mem_ctrl.bytesPerActivate::0-127          1741     59.24%     59.24% # Bytes accessed per row activation
system.mem_ctrl.bytesPerActivate::128-255          968     32.94%     92.17% # Bytes accessed per row activation
system.mem_ctrl.bytesPerActivate::256-383          155      5.27%     97.45% # Bytes accessed per row activation
system.mem_ctrl.bytesPerActivate::384-511           23      0.78%     98.23% # Bytes accessed per row activation
system.mem_ctrl.bytesPerActivate::512-639           13      0.44%     98.67% # Bytes accessed per row activation
system.mem_ctrl.bytesPerActivate::640-767           12      0.41%     99.08% # Bytes accessed per row activation
system.mem_ctrl.bytesPerActivate::768-895            5      0.17%     99.25% # Bytes accessed per row activation
system.mem_ctrl.bytesPerActivate::896-1023            9      0.31%     99.56% # Bytes accessed per row activation
system.mem_ctrl.bytesPerActivate::1024-1151           13      0.44%    100.00% # Bytes accessed per row activation
system.mem_ctrl.bytesPerActivate::total          2939                       # Bytes accessed per row activation
system.mem_ctrl.rdPerTurnAround::samples           40                       # Reads before turning the bus around for writes
system.mem_ctrl.rdPerTurnAround::mean      112.600000                       # Reads before turning the bus around for writes
system.mem_ctrl.rdPerTurnAround::gmean      72.013528                       # Reads before turning the bus around for writes
system.mem_ctrl.rdPerTurnAround::stdev     231.276480                       # Reads before turning the bus around for writes
system.mem_ctrl.rdPerTurnAround::0-63              19     47.50%     47.50% # Reads before turning the bus around for writes
system.mem_ctrl.rdPerTurnAround::64-127            13     32.50%     80.00% # Reads before turning the bus around for writes
system.mem_ctrl.rdPerTurnAround::128-191            7     17.50%     97.50% # Reads before turning the bus around for writes
system.mem_ctrl.rdPerTurnAround::1472-1535            1      2.50%    100.00% # Reads before turning the bus around for writes
system.mem_ctrl.rdPerTurnAround::total             40                       # Reads before turning the bus around for writes
system.mem_ctrl.wrPerTurnAround::samples           40                       # Writes before turning the bus around for reads
system.mem_ctrl.wrPerTurnAround::mean       17.225000                       # Writes before turning the bus around for reads
system.mem_ctrl.wrPerTurnAround::gmean      17.199165                       # Writes before turning the bus around for reads
system.mem_ctrl.wrPerTurnAround::stdev       0.946993                       # Writes before turning the bus around for reads
system.mem_ctrl.wrPerTurnAround::16                14     35.00%     35.00% # Writes before turning the bus around for reads
system.mem_ctrl.wrPerTurnAround::17                 3      7.50%     42.50% # Writes before turning the bus around for reads
system.mem_ctrl.wrPerTurnAround::18                23     57.50%    100.00% # Writes before turning the bus around for reads
system.mem_ctrl.wrPerTurnAround::total             40                       # Writes before turning the bus around for reads
system.mem_ctrl.bytesReadDRAM                  288448                       # Total number of bytes read from DRAM
system.mem_ctrl.bytesReadWrQ                      896                       # Total number of bytes read from write queue
system.mem_ctrl.bytesWritten                    44096                       # Total number of bytes written to DRAM
system.mem_ctrl.bytesReadSys                   289344                       # Total read bytes from the system interface side
system.mem_ctrl.bytesWrittenSys                 46464                       # Total written bytes from the system interface side
system.mem_ctrl.avgRdBW                         66.55                       # Average DRAM read bandwidth in MiByte/s
system.mem_ctrl.avgWrBW                         10.17                       # Average achieved write bandwidth in MiByte/s
system.mem_ctrl.avgRdBWSys                      66.75                       # Average system read bandwidth in MiByte/s
system.mem_ctrl.avgWrBWSys                      10.72                       # Average system write bandwidth in MiByte/s
system.mem_ctrl.peakBW                       12800.00                       # Theoretical peak bandwidth in MiByte/s
system.mem_ctrl.busUtil                          0.60                       # Data bus utilization in percentage
system.mem_ctrl.busUtilRead                      0.52                       # Data bus utilization in percentage for reads
system.mem_ctrl.busUtilWrite                     0.08                       # Data bus utilization in percentage for writes
system.mem_ctrl.totGap                     4327714000                       # Total gap between requests
system.mem_ctrl.avgGap                      824797.79                       # Average gap between requests
system.mem_ctrl.masterReadBytes::.cpu.inst        38592                       # Per-master bytes read from memory
system.mem_ctrl.masterReadBytes::.cpu.data       249856                       # Per-master bytes read from memory
system.mem_ctrl.masterWriteBytes::.writebacks        44096                       # Per-master bytes write to memory
system.mem_ctrl.masterReadRate::.cpu.inst 8903305.287491030991                       # Per-master bytes read from memory rate (Bytes/sec)
system.mem_ctrl.masterReadRate::.cpu.data 57642626.604253709316                       # Per-master bytes read from memory rate (Bytes/sec)
system.mem_ctrl.masterWriteRate::.writebacks 10173096.754695389420                       # Per-master bytes write to memory rate (Bytes/sec)
system.mem_ctrl.masterReadAccesses::.cpu.inst          603                       # Per-master read serviced memory accesses
system.mem_ctrl.masterReadAccesses::.cpu.data         3918                       # Per-master read serviced memory accesses
system.mem_ctrl.masterWriteAccesses::.writebacks          726                       # Per-master write serviced memory accesses
system.mem_ctrl.masterReadTotalLat::.cpu.inst     17372750                       # Per-master read total memory access latency
system.mem_ctrl.masterReadTotalLat::.cpu.data    121100000                       # Per-master read total memory access latency
system.mem_ctrl.masterWriteTotalLat::.writebacks  83708498750                       # Per-master write total memory access latency
system.mem_ctrl.masterReadAvgLat::.cpu.inst     28810.53                       # Per-master read average memory access latency
system.mem_ctrl.masterReadAvgLat::.cpu.data     30908.63                       # Per-master read average memory access latency
system.mem_ctrl.masterWriteAvgLat::.writebacks 115300962.47                       # Per-master write average memory access latency
system.mem_ctrl.pageHitRate                     43.30                       # Row buffer hit rate, read and write combined
system.mem_ctrl.rank1.actEnergy              10845660                       # Energy for activate commands per rank (pJ)
system.mem_ctrl.rank1.preEnergy               5764605                       # Energy for precharge commands per rank (pJ)
system.mem_ctrl.rank1.readEnergy             17278800                       # Energy for read commands per rank (pJ)
system.mem_ctrl.rank1.writeEnergy             2343780                       # Energy for write commands per rank (pJ)
system.mem_ctrl.rank1.refreshEnergy      341739840.000000                       # Energy for refresh commands per rank (pJ)
system.mem_ctrl.rank1.actBackEnergy        1085313630                       # Energy for active background per rank (pJ)
system.mem_ctrl.rank1.preBackEnergy         750526560                       # Energy for precharge background per rank (pJ)
system.mem_ctrl.rank1.actPowerDownEnergy            0                       # Energy for active power-down per rank (pJ)
system.mem_ctrl.rank1.prePowerDownEnergy            0                       # Energy for precharge power-down per rank (pJ)
system.mem_ctrl.rank1.selfRefreshEnergy             0                       # Energy for self refresh per rank (pJ)
system.mem_ctrl.rank1.totalEnergy          2213812875                       # Total energy per rank (pJ)
system.mem_ctrl.rank1.averagePower         510.734139                       # Core power per rank (mW)
system.mem_ctrl.rank1.totalIdleTime                 0                       # Total Idle time Per DRAM Rank
system.mem_ctrl.rank1.memoryStateTime::IDLE   1938967750                       # Time in different power states
system.mem_ctrl.rank1.memoryStateTime::REF    144560000                       # Time in different power states
system.mem_ctrl.rank1.memoryStateTime::SREF            0                       # Time in different power states
system.mem_ctrl.rank1.memoryStateTime::PRE_PDN            0                       # Time in different power states
system.mem_ctrl.rank1.memoryStateTime::ACT   2251042250                       # Time in different power states
system.mem_ctrl.rank1.memoryStateTime::ACT_PDN            0                       # Time in different power states
system.mem_ctrl.rank0.actEnergy              10138800                       # Energy for activate commands per rank (pJ)
system.mem_ctrl.rank0.preEnergy               5388900                       # Energy for precharge commands per rank (pJ)
system.mem_ctrl.rank0.readEnergy             14901180                       # Energy for read commands per rank (pJ)
system.mem_ctrl.rank0.writeEnergy             1252800                       # Energy for write commands per rank (pJ)
system.mem_ctrl.rank0.refreshEnergy      341739840.000000                       # Energy for refresh commands per rank (pJ)
system.mem_ctrl.rank0.actBackEnergy        1039617300                       # Energy for active background per rank (pJ)
system.mem_ctrl.rank0.preBackEnergy         789007680                       # Energy for precharge background per rank (pJ)
system.mem_ctrl.rank0.actPowerDownEnergy            0                       # Energy for active power-down per rank (pJ)
system.mem_ctrl.rank0.prePowerDownEnergy            0                       # Energy for precharge power-down per rank (pJ)
system.mem_ctrl.rank0.selfRefreshEnergy             0                       # Energy for self refresh per rank (pJ)
system.mem_ctrl.rank0.totalEnergy          2202046500                       # Total energy per rank (pJ)
system.mem_ctrl.rank0.averagePower         508.019596                       # Core power per rank (mW)
system.mem_ctrl.rank0.totalIdleTime                 0                       # Total Idle time Per DRAM Rank
system.mem_ctrl.rank0.memoryStateTime::IDLE   2039267000                       # Time in different power states
system.mem_ctrl.rank0.memoryStateTime::REF    144560000                       # Time in different power states
system.mem_ctrl.rank0.memoryStateTime::SREF            0                       # Time in different power states
system.mem_ctrl.rank0.memoryStateTime::PRE_PDN            0                       # Time in different power states
system.mem_ctrl.rank0.memoryStateTime::ACT   2150743000                       # Time in different power states
system.mem_ctrl.rank0.memoryStateTime::ACT_PDN            0                       # Time in different power states
system.mem_ctrl.power_state.pwrStateResidencyTicks::UNDEFINED   4334570000                       # Cumulative time (in ticks) in various power states
system.cache_medium.blocked_cycles::no_mshrs            0                       # number of cycles access was blocked
system.cache_medium.blocked_cycles::no_targets            0                       # number of cycles access was blocked
system.cache_medium.blocked::no_mshrs               0                       # number of cycles access was blocked
system.cache_medium.blocked::no_targets             0                       # number of cycles access was blocked
system.cache_medium.avg_blocked_cycles::no_mshrs          nan                       # average number of cycles each access was blocked
system.cache_medium.avg_blocked_cycles::no_targets          nan                       # average number of cycles each access was blocked
system.cache_medium.replacements                    0                       # number of replacements
system.cache_medium.power_state.pwrStateResidencyTicks::UNDEFINED   4334570000                       # Cumulative time (in ticks) in various power states
system.cache_medium.tags.tagsinuse                  0                       # Cycle average of tags in use
system.cache_medium.tags.total_refs                 0                       # Total number of references to valid blocks.
system.cache_medium.tags.sampled_refs               0                       # Sample count of references to valid blocks.
system.cache_medium.tags.avg_refs                 nan                       # Average number of references to valid blocks.
system.cache_medium.tags.warmup_cycle               0                       # Cycle when the warmup percentage was hit.
system.cache_medium.tags.tag_accesses               0                       # Number of tag accesses
system.cache_medium.tags.data_accesses              0                       # Number of data accesses
system.cache_medium.tags.power_state.pwrStateResidencyTicks::UNDEFINED   4334570000                       # Cumulative time (in ticks) in various power states
system.clk_domain.clock                          1000                       # Clock period in ticks
system.clk_domain.voltage_domain.voltage            1                       # Voltage in Volts
system.dcache.demand_hits::.cpu.data           361173                       # number of demand (read+write) hits
system.dcache.demand_hits::total               361173                       # number of demand (read+write) hits
system.dcache.overall_hits::.cpu.data          361173                       # number of overall hits
system.dcache.overall_hits::total              361173                       # number of overall hits
system.dcache.demand_misses::.cpu.data           6539                       # number of demand (read+write) misses
system.dcache.demand_misses::total               6539                       # number of demand (read+write) misses
system.dcache.overall_misses::.cpu.data          6539                       # number of overall misses
system.dcache.overall_misses::total              6539                       # number of overall misses
system.dcache.demand_miss_latency::.cpu.data    359672000                       # number of demand (read+write) miss cycles
system.dcache.demand_miss_latency::total    359672000                       # number of demand (read+write) miss cycles
system.dcache.overall_miss_latency::.cpu.data    359672000                       # number of overall miss cycles
system.dcache.overall_miss_latency::total    359672000                       # number of overall miss cycles
system.dcache.demand_accesses::.cpu.data       367712                       # number of demand (read+write) accesses
system.dcache.demand_accesses::total           367712                       # number of demand (read+write) accesses
system.dcache.overall_accesses::.cpu.data       367712                       # number of overall (read+write) accesses
system.dcache.overall_accesses::total          367712                       # number of overall (read+write) accesses
system.dcache.demand_miss_rate::.cpu.data     0.017783                       # miss rate for demand accesses
system.dcache.demand_miss_rate::total        0.017783                       # miss rate for demand accesses
system.dcache.overall_miss_rate::.cpu.data     0.017783                       # miss rate for overall accesses
system.dcache.overall_miss_rate::total       0.017783                       # miss rate for overall accesses
system.dcache.demand_avg_miss_latency::.cpu.data 55004.129072                       # average overall miss latency
system.dcache.demand_avg_miss_latency::total 55004.129072                       # average overall miss latency
system.dcache.overall_avg_miss_latency::.cpu.data 55004.129072                       # average overall miss latency
system.dcache.overall_avg_miss_latency::total 55004.129072                       # average overall miss latency
system.dcache.blocked_cycles::no_mshrs              0                       # number of cycles access was blocked
system.dcache.blocked_cycles::no_targets            0                       # number of cycles access was blocked
system.dcache.blocked::no_mshrs                     0                       # number of cycles access was blocked
system.dcache.blocked::no_targets                   0                       # number of cycles access was blocked
system.dcache.avg_blocked_cycles::no_mshrs          nan                       # average number of cycles each access was blocked
system.dcache.avg_blocked_cycles::no_targets          nan                       # average number of cycles each access was blocked
system.dcache.writebacks::.writebacks            5095                       # number of writebacks
system.dcache.writebacks::total                  5095                       # number of writebacks
system.dcache.demand_mshr_misses::.cpu.data         6539                       # number of demand (read+write) MSHR misses
system.dcache.demand_mshr_misses::total          6539                       # number of demand (read+write) MSHR misses
system.dcache.overall_mshr_misses::.cpu.data         6539                       # number of overall MSHR misses
system.dcache.overall_mshr_misses::total         6539                       # number of overall MSHR misses
system.dcache.demand_mshr_miss_latency::.cpu.data    346594000                       # number of demand (read+write) MSHR miss cycles
system.dcache.demand_mshr_miss_latency::total    346594000                       # number of demand (read+write) MSHR miss cycles
[...]
system.dcache.tags.age_task_id_blocks_1024::1           82                       # Occupied blocks per task id
system.dcache.tags.age_task_id_blocks_1024::2          142                       # Occupied blocks per task id
system.dcache.tags.occ_task_id_percent::1024            1                       # Percentage of cache occupancy per task id
system.dcache.tags.tag_accesses                997456                       # Number of tag accesses
system.dcache.tags.data_accesses               997456                       # Number of data accesses
system.dcache.tags.power_state.pwrStateResidencyTicks::UNDEFINED  11499937000                       # Cumulative time (in ticks) in various power states
system.cache_large.blocked_cycles::no_mshrs            0                       # number of cycles access was blocked
system.cache_large.blocked_cycles::no_targets            0                       # number of cycles access was blocked
system.cache_large.blocked::no_mshrs                0                       # number of cycles access was blocked
system.cache_large.blocked::no_targets              0                       # number of cycles access was blocked
system.cache_large.avg_blocked_cycles::no_mshrs          nan                       # average number of cycles each access was blocked
system.cache_large.avg_blocked_cycles::no_targets          nan                       # average number of cycles each access was blocked
system.cache_large.replacements                     0                       # number of replacements
system.cache_large.power_state.pwrStateResidencyTicks::UNDEFINED  11499937000                       # Cumulative time (in ticks) in various power states
system.cache_large.tags.tagsinuse                   0                       # Cycle average of tags in use
system.cache_large.tags.total_refs                  0                       # Total number of references to valid blocks.
system.cache_large.tags.sampled_refs                0                       # Sample count of references to valid blocks.
system.cache_large.tags.avg_refs                  nan                       # Average number of references to valid blocks.
system.cache_large.tags.warmup_cycle                0                       # Cycle when the warmup percentage was hit.
system.cache_large.tags.tag_accesses                0                       # Number of tag accesses
system.cache_large.tags.data_accesses               0                       # Number of data accesses
system.cache_large.tags.power_state.pwrStateResidencyTicks::UNDEFINED  11499937000                       # Cumulative time (in ticks) in various power states
system.l2cache.demand_hits::.cpu.inst           61375                       # number of demand (read+write) hits
system.l2cache.demand_hits::.cpu.data            5927                       # number of demand (read+write) hits
system.l2cache.demand_hits::total               67302                       # number of demand (read+write) hits
system.l2cache.overall_hits::.cpu.inst          61375                       # number of overall hits
system.l2cache.overall_hits::.cpu.data           5927                       # number of overall hits
system.l2cache.overall_hits::total              67302                       # number of overall hits
system.l2cache.demand_misses::.cpu.inst         15841                       # number of demand (read+write) misses
system.l2cache.demand_misses::.cpu.data         11176                       # number of demand (read+write) misses
system.l2cache.demand_misses::total             27017                       # number of demand (read+write) misses
system.l2cache.overall_misses::.cpu.inst        15841                       # number of overall misses
system.l2cache.overall_misses::.cpu.data        11176                       # number of overall misses
system.l2cache.overall_misses::total            27017                       # number of overall misses
system.l2cache.demand_miss_latency::.cpu.inst    255704000                       # number of demand (read+write) miss cycles
system.l2cache.demand_miss_latency::.cpu.data    800553000                       # number of demand (read+write) miss cycles
system.l2cache.demand_miss_latency::total   1056257000                       # number of demand (read+write) miss cycles
system.l2cache.overall_miss_latency::.cpu.inst    255704000                       # number of overall miss cycles
system.l2cache.overall_miss_latency::.cpu.data    800553000                       # number of overall miss cycles
system.l2cache.overall_miss_latency::total   1056257000                       # number of overall miss cycles
system.l2cache.demand_accesses::.cpu.inst        77216                       # number of demand (read+write) accesses
system.l2cache.demand_accesses::.cpu.data        17103                       # number of demand (read+write) accesses
system.l2cache.demand_accesses::total           94319                       # number of demand (read+write) accesses
system.l2cache.overall_accesses::.cpu.inst        77216                       # number of overall (read+write) accesses
system.l2cache.overall_accesses::.cpu.data        17103                       # number of overall (read+write) accesses
system.l2cache.overall_accesses::total          94319                       # number of overall (read+write) accesses
system.l2cache.demand_miss_rate::.cpu.inst     0.205152                       # miss rate for demand accesses
system.l2cache.demand_miss_rate::.cpu.data     0.653453                       # miss rate for demand accesses
system.l2cache.demand_miss_rate::total       0.286443                       # miss rate for demand accesses
system.l2cache.overall_miss_rate::.cpu.inst     0.205152                       # miss rate for overall accesses
system.l2cache.overall_miss_rate::.cpu.data     0.653453                       # miss rate for overall accesses
system.l2cache.overall_miss_rate::total      0.286443                       # miss rate for overall accesses
system.l2cache.demand_avg_miss_latency::.cpu.inst 16141.910233                       # average overall miss latency
system.l2cache.demand_avg_miss_latency::.cpu.data 71631.442377                       # average overall miss latency
system.l2cache.demand_avg_miss_latency::total 39096.013621                       # average overall miss latency
system.l2cache.overall_avg_miss_latency::.cpu.inst 16141.910233                       # average overall miss latency
system.l2cache.overall_avg_miss_latency::.cpu.data 71631.442377                       # average overall miss latency
system.l2cache.overall_avg_miss_latency::total 39096.013621                       # average overall miss latency
system.l2cache.blocked_cycles::no_mshrs             0                       # number of cycles access was blocked
system.l2cache.blocked_cycles::no_targets            0                       # number of cycles access was blocked
system.l2cache.blocked::no_mshrs                    0                       # number of cycles access was blocked
system.l2cache.blocked::no_targets                  0                       # number of cycles access was blocked
system.l2cache.avg_blocked_cycles::no_mshrs          nan                       # average number of cycles each access was blocked
system.l2cache.avg_blocked_cycles::no_targets          nan                       # average number of cycles each access was blocked
system.l2cache.writebacks::.writebacks          11208                       # number of writebacks
system.l2cache.writebacks::total                11208                       # number of writebacks
system.l2cache.demand_mshr_misses::.cpu.inst        15841                       # number of demand (read+write) MSHR misses
system.l2cache.demand_mshr_misses::.cpu.data        11176                       # number of demand (read+write) MSHR misses
system.l2cache.demand_mshr_misses::total        27017                       # number of demand (read+write) MSHR misses
system.l2cache.overall_mshr_misses::.cpu.inst        15841                       # number of overall MSHR misses
system.l2cache.overall_mshr_misses::.cpu.data        11176                       # number of overall MSHR misses
system.l2cache.overall_mshr_misses::total        27017                       # number of overall MSHR misses
system.l2cache.demand_mshr_miss_latency::.cpu.inst    224022000                       # number of demand (read+write) MSHR miss cycles
system.l2cache.demand_mshr_miss_latency::.cpu.data    778201000                       # number of demand (read+write) MSHR miss cycles
system.l2cache.demand_mshr_miss_latency::total   1002223000                       # number of demand (read+write) MSHR miss cycles
system.l2cache.overall_mshr_miss_latency::.cpu.inst    224022000                       # number of overall MSHR miss cycles
system.l2cache.overall_mshr_miss_latency::.cpu.data    778201000                       # number of overall MSHR miss cycles
system.l2cache.overall_mshr_miss_latency::total   1002223000                       # number of overall MSHR miss cycles
system.l2cache.demand_mshr_miss_rate::.cpu.inst     0.205152                       # mshr miss rate for demand accesses
system.l2cache.demand_mshr_miss_rate::.cpu.data     0.653453                       # mshr miss rate for demand accesses
system.l2cache.demand_mshr_miss_rate::total     0.286443                       # mshr miss rate for demand accesses
system.l2cache.overall_mshr_miss_rate::.cpu.inst     0.205152                       # mshr miss rate for overall accesses
system.l2cache.overall_mshr_miss_rate::.cpu.data     0.653453                       # mshr miss rate for overall accesses
system.l2cache.overall_mshr_miss_rate::total     0.286443                       # mshr miss rate for overall accesses
system.l2cache.demand_avg_mshr_miss_latency::.cpu.inst 14141.910233                       # average overall mshr miss latency
system.l2cache.demand_avg_mshr_miss_latency::.cpu.data 69631.442377                       # average overall mshr miss latency
system.l2cache.demand_avg_mshr_miss_latency::total 37096.013621                       # average overall mshr miss latency
system.l2cache.overall_avg_mshr_miss_latency::.cpu.inst 14141.910233                       # average overall mshr miss latency
system.l2cache.overall_avg_mshr_miss_latency::.cpu.data 69631.442377                       # average overall mshr miss latency
system.l2cache.overall_avg_mshr_miss_latency::total 37096.013621                       # average overall mshr miss latency
system.l2cache.replacements                     34822                       # number of replacements
system.l2cache.ReadReq_hits::.cpu.inst          61375                       # number of ReadReq hits
system.l2cache.ReadReq_hits::.cpu.data           5927                       # number of ReadReq hits
system.l2cache.ReadReq_hits::total              67302                       # number of ReadReq hits
system.l2cache.ReadReq_misses::.cpu.inst        15841                       # number of ReadReq misses
system.l2cache.ReadReq_misses::.cpu.data        11176                       # number of ReadReq misses
system.l2cache.ReadReq_misses::total            27017                       # number of ReadReq misses
system.l2cache.ReadReq_miss_latency::.cpu.inst    255704000                       # number of ReadReq miss cycles
system.l2cache.ReadReq_miss_latency::.cpu.data    800553000                       # number of ReadReq miss cycles
system.l2cache.ReadReq_miss_latency::total   1056257000                       # number of ReadReq miss cycles
system.l2cache.ReadReq_accesses::.cpu.inst        77216                       # number of ReadReq accesses(hits+misses)
system.l2cache.ReadReq_accesses::.cpu.data        17103                       # number of ReadReq accesses(hits+misses)
system.l2cache.ReadReq_accesses::total          94319                       # number of ReadReq accesses(hits+misses)
system.l2cache.ReadReq_miss_rate::.cpu.inst     0.205152                       # miss rate for ReadReq accesses
system.l2cache.ReadReq_miss_rate::.cpu.data     0.653453                       # miss rate for ReadReq accesses
system.l2cache.ReadReq_miss_rate::total      0.286443                       # miss rate for ReadReq accesses
system.l2cache.ReadReq_avg_miss_latency::.cpu.inst 16141.910233                       # average ReadReq miss latency
system.l2cache.ReadReq_avg_miss_latency::.cpu.data 71631.442377                       # average ReadReq miss latency
system.l2cache.ReadReq_avg_miss_latency::total 39096.013621                       # average ReadReq miss latency
system.l2cache.ReadReq_mshr_misses::.cpu.inst        15841                       # number of ReadReq MSHR misses
system.l2cache.ReadReq_mshr_misses::.cpu.data        11176                       # number of ReadReq MSHR misses
system.l2cache.ReadReq_mshr_misses::total        27017                       # number of ReadReq MSHR misses
system.l2cache.ReadReq_mshr_miss_latency::.cpu.inst    224022000                       # number of ReadReq MSHR miss cycles
system.l2cache.ReadReq_mshr_miss_latency::.cpu.data    778201000                       # number of ReadReq MSHR miss cycles
system.l2cache.ReadReq_mshr_miss_latency::total   1002223000                       # number of ReadReq MSHR miss cycles
system.l2cache.ReadReq_mshr_miss_rate::.cpu.inst     0.205152                       # mshr miss rate for ReadReq accesses
system.l2cache.ReadReq_mshr_miss_rate::.cpu.data     0.653453                       # mshr miss rate for ReadReq accesses
system.l2cache.ReadReq_mshr_miss_rate::total     0.286443                       # mshr miss rate for ReadReq accesses
system.l2cache.ReadReq_avg_mshr_miss_latency::.cpu.inst 14141.910233                       # average ReadReq mshr miss latency
system.l2cache.ReadReq_avg_mshr_miss_latency::.cpu.data 69631.442377                       # average ReadReq mshr miss latency
system.l2cache.ReadReq_avg_mshr_miss_latency::total 37096.013621                       # average ReadReq mshr miss latency
system.l2cache.WritebackDirty_hits::.writebacks        13828                       # number of WritebackDirty hits
system.l2cache.WritebackDirty_hits::total        13828                       # number of WritebackDirty hits
system.l2cache.WritebackDirty_accesses::.writebacks        13828                       # number of WritebackDirty accesses(hits+misses)
system.l2cache.WritebackDirty_accesses::total        13828                       # number of WritebackDirty accesses(hits+misses)
system.l2cache.power_state.pwrStateResidencyTicks::UNDEFINED  11499937000                       # Cumulative time (in ticks) in various power states
system.l2cache.tags.tagsinuse              505.681662                       # Cycle average of tags in use
system.l2cache.tags.total_refs                 108147                       # Total number of references to valid blocks.
system.l2cache.tags.sampled_refs                35334                       # Sample count of references to valid blocks.
system.l2cache.tags.avg_refs                 3.060706                       # Average number of references to valid blocks.
system.l2cache.tags.warmup_cycle                78000                       # Cycle when the warmup percentage was hit.
system.l2cache.tags.occ_blocks::.writebacks   214.772968                       # Average occupied blocks per requestor
system.l2cache.tags.occ_blocks::.cpu.inst    42.025227                       # Average occupied blocks per requestor
system.l2cache.tags.occ_blocks::.cpu.data   248.883467                       # Average occupied blocks per requestor
system.l2cache.tags.occ_percent::.writebacks     0.419478                       # Average percentage of cache occupancy
system.l2cache.tags.occ_percent::.cpu.inst     0.082081                       # Average percentage of cache occupancy
system.l2cache.tags.occ_percent::.cpu.data     0.486101                       # Average percentage of cache occupancy
system.l2cache.tags.occ_percent::total       0.987659                       # Average percentage of cache occupancy
system.l2cache.tags.occ_task_id_blocks::1024          512                       # Occupied blocks per task id
system.l2cache.tags.age_task_id_blocks_1024::0           82                       # Occupied blocks per task id
system.l2cache.tags.age_task_id_blocks_1024::1          121                       # Occupied blocks per task id
system.l2cache.tags.age_task_id_blocks_1024::2          289                       # Occupied blocks per task id
system.l2cache.tags.age_task_id_blocks_1024::3           20                       # Occupied blocks per task id
system.l2cache.tags.occ_task_id_percent::1024            1                       # Percentage of cache occupancy per task id
system.l2cache.tags.tag_accesses               143481                       # Number of tag accesses
system.l2cache.tags.data_accesses              143481                       # Number of data accesses
system.l2cache.tags.power_state.pwrStateResidencyTicks::UNDEFINED  11499937000                       # Cumulative time (in ticks) in various power states
system.l2bar.trans_dist::ReadReq                94319                       # Transaction distribution
system.l2bar.trans_dist::ReadResp               94319                       # Transaction distribution
system.l2bar.trans_dist::WritebackDirty         13828                       # Transaction distribution
system.l2bar.pkt_count_system.dcache.mem_side::system.l2cache.cpu_side        48034                       # Packet count per connected master and slave (bytes)
system.l2bar.pkt_count_system.icache.mem_side::system.l2cache.cpu_side       154432                       # Packet count per connected master and slave (bytes)
system.l2bar.pkt_count::total                  202466                       # Packet count per connected master and slave (bytes)
system.l2bar.pkt_size_system.dcache.mem_side::system.l2cache.cpu_side      1979584                       # Cumulative packet size per connected master and slave (bytes)
system.l2bar.pkt_size_system.icache.mem_side::system.l2cache.cpu_side      4941824                       # Cumulative packet size per connected master and slave (bytes)
system.l2bar.pkt_size::total                  6921408                       # Cumulative packet size per connected master and slave (bytes)
system.l2bar.respLayer1.occupancy           386080000                       # Layer occupancy (ticks)
system.l2bar.respLayer1.utilization               3.4                       # Layer utilization (%)
system.l2bar.reqLayer0.occupancy            163459000                       # Layer occupancy (ticks)
system.l2bar.reqLayer0.utilization                1.4                       # Layer utilization (%)
system.l2bar.respLayer0.occupancy            85515000                       # Layer occupancy (ticks)
system.l2bar.respLayer0.utilization               0.7                       # Layer utilization (%)
system.l2bar.power_state.pwrStateResidencyTicks::UNDEFINED  11499937000                       # Cumulative time (in ticks) in various power states
system.cpu.dtb.walker.power_state.pwrStateResidencyTicks::UNDEFINED  11499937000                       # Cumulative time (in ticks) in various power states
system.cpu.interrupts.clk_domain.clock          16000                       # Clock period in ticks
system.cpu.itb.walker.power_state.pwrStateResidencyTicks::UNDEFINED  11499937000                       # Cumulative time (in ticks) in various power states
system.cpu.power_state.numTransitions               1                       # Number of power state transitions
system.cpu.power_state.pwrStateResidencyTicks::ON  11499937000                       # Cumulative time (in ticks) in various power states

---------- End Simulation Statistics   ----------
