
---------- Begin Simulation Statistics ----------
final_tick                                 3874976000                       # Number of ticks from beginning of simulation (restored from checkpoints and never reset)
host_inst_rate                                  84406                       # Simulator instruction rate (inst/s)
host_mem_usage                               34252016                       # Number of bytes of host memory used
host_op_rate                                   159637                       # Simulator op (including micro ops) rate (op/s)
host_seconds                                    11.85                       # Real time elapsed on the host
host_tick_rate                              327050417                       # Simulator tick rate (ticks/s)
sim_freq                                 1000000000000                       # Frequency of simulated ticks
sim_insts                                     1000033                       # Number of instructions simulated
sim_ops                                       1891410                       # Number of ops (including micro ops) simulated
sim_seconds                                  0.003875                       # Number of seconds simulated
sim_ticks                                  3874976000                       # Number of ticks simulated
system.cpu.Branches                            238611                       # Number of branches fetched
system.cpu.committedInsts                     1000033                       # Number of instructions committed
system.cpu.committedOps                       1891410                       # Number of ops (including micro ops) committed
system.cpu.dtb.rdAccesses                      245397                       # TLB accesses on read requests
system.cpu.dtb.rdMisses                            52                       # TLB misses on read requests
system.cpu.dtb.wrAccesses                      142936                       # TLB accesses on write requests
system.cpu.dtb.wrMisses                            64                       # TLB misses on write requests
system.cpu.idle_fraction                            0                       # Percentage of idle cycles
system.cpu.itb.rdAccesses                           0                       # TLB accesses on read requests
system.cpu.itb.rdMisses                             0                       # TLB misses on read requests
system.cpu.itb.wrAccesses                     1298739                       # TLB accesses on write requests
system.cpu.itb.wrMisses                           112                       # TLB misses on write requests
system.cpu.not_idle_fraction                        1                       # Percentage of non-idle cycles
system.cpu.numCycles                          3874965                       # number of cpu cycles simulated
system.cpu.numWorkItemsCompleted                    0                       # number of work items this cpu completed
system.cpu.numWorkItemsStarted                      0                       # number of work items this cpu started
system.cpu.num_busy_cycles                    3874965                       # Number of busy cycles
system.cpu.num_cc_register_reads              1102429                       # number of times the CC registers were read
system.cpu.num_cc_register_writes              577236                       # number of times the CC registers were written
system.cpu.num_conditional_control_insts       175136                       # number of instructions that are conditional controls
system.cpu.num_fp_alu_accesses                   7373                       # Number of float alu accesses
system.cpu.num_fp_insts                          7373                       # number of float instructions
system.cpu.num_fp_register_reads                11135                       # number of times the floating registers were read
system.cpu.num_fp_register_writes                5646                       # number of times the floating registers were written
system.cpu.num_func_calls                       47413                       # number of times a function call or return occured
system.cpu.num_idle_cycles                          0                       # Number of idle cycles
system.cpu.num_int_alu_accesses               1884136                       # Number of integer alu accesses
system.cpu.num_int_insts                      1884136                       # number of integer instructions
system.cpu.num_int_register_reads             3636587                       # number of times the integer registers were read
system.cpu.num_int_register_writes            1503064                       # number of times the integer registers were written
system.cpu.num_load_insts                      245357                       # Number of load instructions
system.cpu.num_mem_refs                        388279                       # number of memory refs
system.cpu.num_store_insts                     142922                       # Number of store instructions
system.cpu.num_vec_alu_accesses                     0                       # Number of vector alu accesses
system.cpu.num_vec_insts                            0                       # number of vector instructions
system.cpu.num_vec_register_reads                   0                       # number of times the vector registers were read
system.cpu.num_vec_register_writes                  0                       # number of times the vector registers were written
system.cpu.op_class::No_OpClass                  2746      0.15%      0.15% # Class of executed instruction
system.cpu.op_class::IntAlu                   1495081     79.04%     79.19% # Class of executed instruction
system.cpu.op_class::IntMult                       33      0.00%     79.19% # Class of executed instruction
system.cpu.op_class::IntDiv                        98      0.01%     79.20% # Class of executed instruction
system.cpu.op_class::FloatAdd                     128      0.01%     79.20% # Class of executed instruction
system.cpu.op_class::FloatCmp                       0      0.00%     79.20% # Class of executed instruction
system.cpu.op_class::FloatCvt                       0      0.00%     79.20% # Class of executed instruction
system.cpu.op_class::FloatMult                      0      0.00%     79.20% # Class of executed instruction
system.cpu.op_class::FloatMultAcc                   0      0.00%     79.20% # Class of executed instruction
system.cpu.op_class::FloatDiv                       0      0.00%     79.20% # Class of executed instruction
system.cpu.op_class::FloatMisc                      0      0.00%     79.20% # Class of executed instruction
system.cpu.op_class::FloatSqrt                      0      0.00%     79.20% # Class of executed instruction
system.cpu.op_class::SimdAdd                        0      0.00%     79.20% # Class of executed instruction
system.cpu.op_class::SimdAddAcc                     0      0.00%     79.20% # Class of executed instruction
system.cpu.op_class::SimdAlu                     1860      0.10%     79.30% # Class of executed instruction
system.cpu.op_class::SimdCmp                      270      0.01%     79.32% # Class of executed instruction
system.cpu.op_class::SimdCvt                     1290      0.07%     79.38% # Class of executed instruction
system.cpu.op_class::SimdMisc                    1614      0.09%     79.47% # Class of executed instruction
system.cpu.op_class::SimdMult                       0      0.00%     79.47% # Class of executed instruction
system.cpu.op_class::SimdMultAcc                    0      0.00%     79.47% # Class of executed instruction
system.cpu.op_class::SimdShift                      0      0.00%     79.47% # Class of executed instruction
system.cpu.op_class::SimdShiftAcc                   0      0.00%     79.47% # Class of executed instruction
system.cpu.op_class::SimdDiv                        0      0.00%     79.47% # Class of executed instruction
system.cpu.op_class::SimdSqrt                       0      0.00%     79.47% # Class of executed instruction
system.cpu.op_class::SimdFloatAdd                   1      0.00%     79.47% # Class of executed instruction
system.cpu.op_class::SimdFloatAlu                   0      0.00%     79.47% # Class of executed instruction
system.cpu.op_class::SimdFloatCmp                   0      0.00%     79.47% # Class of executed instruction
system.cpu.op_class::SimdFloatCvt                  34      0.00%     79.47% # Class of executed instruction
system.cpu.op_class::SimdFloatDiv                   1      0.00%     79.47% # Class of executed instruction
system.cpu.op_class::SimdFloatMisc                  0      0.00%     79.47% # Class of executed instruction
system.cpu.op_class::SimdFloatMult                  1      0.00%     79.47% # Class of executed instruction
system.cpu.op_class::SimdFloatMultAcc               0      0.00%     79.47% # Class of executed instruction
system.cpu.op_class::SimdFloatSqrt                  0      0.00%     79.47% # Class of executed instruction
system.cpu.op_class::SimdReduceAdd                  0      0.00%     79.47% # Class of executed instruction
system.cpu.op_class::SimdReduceAlu                  0      0.00%     79.47% # Class of executed instruction
system.cpu.op_class::SimdReduceCmp                  0      0.00%     79.47% # Class of executed instruction
system.cpu.op_class::SimdFloatReduceAdd             0      0.00%     79.47% # Class of executed instruction
system.cpu.op_class::SimdFloatReduceCmp             0      0.00%     79.47% # Class of executed instruction
system.cpu.op_class::SimdAes                        0      0.00%     79.47% # Class of executed instruction
system.cpu.op_class::SimdAesMix                     0      0.00%     79.47% # Class of executed instruction
system.cpu.op_class::SimdSha1Hash                   0      0.00%     79.47% # Class of executed instruction
system.cpu.op_class::SimdSha1Hash2                  0      0.00%     79.47% # Class of executed instruction
system.cpu.op_class::SimdSha256Hash                 0      0.00%     79.47% # Class of executed instruction
system.cpu.op_class::SimdSha256Hash2                0      0.00%     79.47% # Class of executed instruction
system.cpu.op_class::SimdShaSigma2                  0      0.00%     79.47% # Class of executed instruction
system.cpu.op_class::SimdShaSigma3                  0      0.00%     79.47% # Class of executed instruction
system.cpu.op_class::SimdPredAlu                    0      0.00%     79.47% # Class of executed instruction
system.cpu.op_class::MemRead                   243786     12.89%     92.36% # Class of executed instruction
system.cpu.op_class::MemWrite                  142442      7.53%     99.89% # Class of executed instruction
system.cpu.op_class::FloatMemRead                1571      0.08%     99.97% # Class of executed instruction
system.cpu.op_class::FloatMemWrite                480      0.03%    100.00% # Class of executed instruction
system.cpu.op_class::IprAccess                      0      0.00%    100.00% # Class of executed instruction
system.cpu.op_class::InstPrefetch                   0      0.00%    100.00% # Class of executed instruction
system.cpu.op_class::total                    1891436                       # Class of executed instruction
system.cpu.workload.numSyscalls                    18                       # Number of system calls
system.dynamic_cache.flushTicks                     0                       # Ticks taken to flush
system.dynamic_cache.numFlushes                     0                       # Number of Flushes Taken
system.cache_small.demand_hits::.cpu.inst         4673                       # number of demand (read+write) hits
system.cache_small.demand_hits::.cpu.data         3012                       # number of demand (read+write) hits
system.cache_small.demand_hits::total            7685                       # number of demand (read+write) hits
system.cache_small.overall_hits::.cpu.inst         4673                       # number of overall hits
system.cache_small.overall_hits::.cpu.data         3012                       # number of overall hits
system.cache_small.overall_hits::total           7685                       # number of overall hits
system.cache_small.demand_misses::.cpu.inst         1598                       # number of demand (read+write) misses
system.cache_small.demand_misses::.cpu.data         1514                       # number of demand (read+write) misses
system.cache_small.demand_misses::total          3112                       # number of demand (read+write) misses
system.cache_small.overall_misses::.cpu.inst         1598                       # number of overall misses
system.cache_small.overall_misses::.cpu.data         1514                       # number of overall misses
system.cache_small.overall_misses::total         3112                       # number of overall misses
system.cache_small.demand_miss_latency::.cpu.inst     96185000                       # number of demand (read+write) miss cycles
system.cache_small.demand_miss_latency::.cpu.data     91365000                       # number of demand (read+write) miss cycles
system.cache_small.demand_miss_latency::total    187550000                       # number of demand (read+write) miss cycles
system.cache_small.overall_miss_latency::.cpu.inst     96185000                       # number of overall miss cycles
system.cache_small.overall_miss_latency::.cpu.data     91365000                       # number of overall miss cycles
system.cache_small.overall_miss_latency::total    187550000                       # number of overall miss cycles
system.cache_small.demand_accesses::.cpu.inst         6271                       # number of demand (read+write) accesses
system.cache_small.demand_accesses::.cpu.data         4526                       # number of demand (read+write) accesses
system.cache_small.demand_accesses::total        10797                       # number of demand (read+write) accesses
system.cache_small.overall_accesses::.cpu.inst         6271                       # number of overall (read+write) accesses
system.cache_small.overall_accesses::.cpu.data         4526                       # number of overall (read+write) accesses
system.cache_small.overall_accesses::total        10797                       # number of overall (read+write) accesses
system.cache_small.demand_miss_rate::.cpu.inst     0.254824                       # miss rate for demand accesses
system.cache_small.demand_miss_rate::.cpu.data     0.334512                       # miss rate for demand accesses
system.cache_small.demand_miss_rate::total     0.288228                       # miss rate for demand accesses
system.cache_small.overall_miss_rate::.cpu.inst     0.254824                       # miss rate for overall accesses
system.cache_small.overall_miss_rate::.cpu.data     0.334512                       # miss rate for overall accesses
system.cache_small.overall_miss_rate::total     0.288228                       # miss rate for overall accesses
system.cache_small.demand_avg_miss_latency::.cpu.inst 60190.863579                       # average overall miss latency
system.cache_small.demand_avg_miss_latency::.cpu.data 60346.763540                       # average overall miss latency
system.cache_small.demand_avg_miss_latency::total 60266.709512                       # average overall miss latency
system.cache_small.overall_avg_miss_latency::.cpu.inst 60190.863579                       # average overall miss latency
system.cache_small.overall_avg_miss_latency::.cpu.data 60346.763540                       # average overall miss latency
system.cache_small.overall_avg_miss_latency::total 60266.709512                       # average overall miss latency
system.cache_small.blocked_cycles::no_mshrs            0                       # number of cycles access was blocked
system.cache_small.blocked_cycles::no_targets            0                       # number of cycles access was blocked
system.cache_small.blocked::no_mshrs                0                       # number of cycles access was blocked
system.cache_small.blocked::no_targets              0                       # number of cycles access was blocked
system.cache_small.avg_blocked_cycles::no_mshrs          nan                       # average number of cycles each access was blocked
system.cache_small.avg_blocked_cycles::no_targets          nan                       # average number of cycles each access was blocked
system.cache_small.writebacks::.writebacks           13                       # number of writebacks
system.cache_small.writebacks::total               13                       # number of writebacks
system.cache_small.demand_mshr_misses::.cpu.inst         1598                       # number of demand (read+write) MSHR misses
system.cache_small.demand_mshr_misses::.cpu.data         1514                       # number of demand (read+write) MSHR misses
system.cache_small.demand_mshr_misses::total         3112                       # number of demand (read+write) MSHR misses
system.cache_small.overall_mshr_misses::.cpu.inst         1598                       # number of overall MSHR misses
system.cache_small.overall_mshr_misses::.cpu.data         1514                       # number of overall MSHR misses
system.cache_small.overall_mshr_misses::total         3112                       # number of overall MSHR misses
system.cache_small.demand_mshr_miss_latency::.cpu.inst     92989000                       # number of demand (read+write) MSHR miss cycles
system.cache_small.demand_mshr_miss_latency::.cpu.data     88337000                       # number of demand (read+write) MSHR miss cycles
system.cache_small.demand_mshr_miss_latency::total    181326000                       # number of demand (read+write) MSHR miss cycles
system.cache_small.overall_mshr_miss_latency::.cpu.inst     92989000                       # number of overall MSHR miss cycles
system.cache_small.overall_mshr_miss_latency::.cpu.data     88337000                       # number of overall MSHR miss cycles
system.cache_small.overall_mshr_miss_latency::total    181326000                       # number of overall MSHR miss cycles
system.cache_small.demand_mshr_miss_rate::.cpu.inst     0.254824                       # mshr miss rate for demand accesses
system.cache_small.demand_mshr_miss_rate::.cpu.data     0.334512                       # mshr miss rate for demand accesses
system.cache_small.demand_mshr_miss_rate::total     0.288228                       # mshr miss rate for demand accesses
system.cache_small.overall_mshr_miss_rate::.cpu.inst     0.254824                       # mshr miss rate for overall accesses
system.cache_small.overall_mshr_miss_rate::.cpu.data     0.334512                       # mshr miss rate for overall accesses
system.cache_small.overall_mshr_miss_rate::total     0.288228                       # mshr miss rate for overall accesses
system.cache_small.demand_avg_mshr_miss_latency::.cpu.inst 58190.863579                       # average overall mshr miss latency
system.cache_small.demand_avg_mshr_miss_latency::.cpu.data 58346.763540                       # average overall mshr miss latency
system.cache_small.demand_avg_mshr_miss_latency::total 58266.709512                       # average overall mshr miss latency
system.cache_small.overall_avg_mshr_miss_latency::.cpu.inst 58190.863579                       # average overall mshr miss latency
system.cache_small.overall_avg_mshr_miss_latency::.cpu.data 58346.763540                       # average overall mshr miss latency
system.cache_small.overall_avg_mshr_miss_latency::total 58266.709512                       # average overall mshr miss latency
system.cache_small.replacements                    69                       # number of replacements
system.cache_small.ReadReq_hits::.cpu.inst         4673                       # number of ReadReq hits
system.cache_small.ReadReq_hits::.cpu.data         3012                       # number of ReadReq hits
system.cache_small.ReadReq_hits::total           7685                       # number of ReadReq hits
system.cache_small.ReadReq_misses::.cpu.inst         1598                       # number of ReadReq misses
system.cache_small.ReadReq_misses::.cpu.data         1514                       # number of ReadReq misses
system.cache_small.ReadReq_misses::total         3112                       # number of ReadReq misses
system.cache_small.ReadReq_miss_latency::.cpu.inst     96185000                       # number of ReadReq miss cycles
system.cache_small.ReadReq_miss_latency::.cpu.data     91365000                       # number of ReadReq miss cycles
system.cache_small.ReadReq_miss_latency::total    187550000                       # number of ReadReq miss cycles
system.cache_small.ReadReq_accesses::.cpu.inst         6271                       # number of ReadReq accesses(hits+misses)
system.cache_small.ReadReq_accesses::.cpu.data         4526                       # number of ReadReq accesses(hits+misses)
system.cache_small.ReadReq_accesses::total        10797                       # number of ReadReq accesses(hits+misses)
system.cache_small.ReadReq_miss_rate::.cpu.inst     0.254824                       # miss rate for ReadReq accesses
system.cache_small.ReadReq_miss_rate::.cpu.data     0.334512                       # miss rate for ReadReq accesses
system.cache_small.ReadReq_miss_rate::total     0.288228                       # miss rate for ReadReq accesses
system.cache_small.ReadReq_avg_miss_latency::.cpu.inst 60190.863579                       # average ReadReq miss latency
system.cache_small.ReadReq_avg_miss_latency::.cpu.data 60346.763540                       # average ReadReq miss latency
system.cache_small.ReadReq_avg_miss_latency::total 60266.709512                       # average ReadReq miss latency
system.cache_small.ReadReq_mshr_misses::.cpu.inst         1598                       # number of ReadReq MSHR misses
system.cache_small.ReadReq_mshr_misses::.cpu.data         1514                       # number of ReadReq MSHR misses
system.cache_small.ReadReq_mshr_misses::total         3112                       # number of ReadReq MSHR misses
system.cache_small.ReadReq_mshr_miss_latency::.cpu.inst     92989000                       # number of ReadReq MSHR miss cycles
system.cache_small.ReadReq_mshr_miss_latency::.cpu.data     88337000                       # number of ReadReq MSHR miss cycles
system.cache_small.ReadReq_mshr_miss_latency::total    181326000                       # number of ReadReq MSHR miss cycles
system.cache_small.ReadReq_mshr_miss_rate::.cpu.inst     0.254824                       # mshr miss rate for ReadReq accesses
system.cache_small.ReadReq_mshr_miss_rate::.cpu.data     0.334512                       # mshr miss rate for ReadReq accesses
system.cache_small.ReadReq_mshr_miss_rate::total     0.288228                       # mshr miss rate for ReadReq accesses
system.cache_small.ReadReq_avg_mshr_miss_latency::.cpu.inst 58190.863579                       # average ReadReq mshr miss latency
system.cache_small.ReadReq_avg_mshr_miss_latency::.cpu.data 58346.763540                       # average ReadReq mshr miss latency
system.cache_small.ReadReq_avg_mshr_miss_latency::total 58266.709512                       # average ReadReq mshr miss latency
system.cache_small.WritebackDirty_hits::.writebacks         3469                       # number of WritebackDirty hits
system.cache_small.WritebackDirty_hits::total         3469                       # number of WritebackDirty hits
system.cache_small.WritebackDirty_accesses::.writebacks         3469                       # number of WritebackDirty accesses(hits+misses)
system.cache_small.WritebackDirty_accesses::total         3469                       # number of WritebackDirty accesses(hits+misses)
system.cache_small.power_state.pwrStateResidencyTicks::UNDEFINED   3874976000                       # Cumulative time (in ticks) in various power states
system.cache_small.tags.tagsinuse         1779.999758                       # Cycle average of tags in use
system.cache_small.tags.total_refs                177                       # Total number of references to valid blocks.
system.cache_small.tags.sampled_refs               69                       # Sample count of references to valid blocks.
system.cache_small.tags.avg_refs             2.565217                       # Average number of references to valid blocks.
system.cache_small.tags.warmup_cycle            76000                       # Cycle when the warmup percentage was hit.
system.cache_small.tags.occ_blocks::.writebacks     1.078370                       # Average occupied blocks per requestor
system.cache_small.tags.occ_blocks::.cpu.inst  1088.379875                       # Average occupied blocks per requestor
system.cache_small.tags.occ_blocks::.cpu.data   690.541512                       # Average occupied blocks per requestor
system.cache_small.tags.occ_percent::.writebacks     0.000033                       # Average percentage of cache occupancy
system.cache_small.tags.occ_percent::.cpu.inst     0.033215                       # Average percentage of cache occupancy
system.cache_small.tags.occ_percent::.cpu.data     0.021074                       # Average percentage of cache occupancy
system.cache_small.tags.occ_percent::total     0.054321                       # Average percentage of cache occupancy
system.cache_small.tags.occ_task_id_blocks::1024         3051                       # Occupied blocks per task id
system.cache_small.tags.age_task_id_blocks_1024::1            1                       # Occupied blocks per task id
system.cache_small.tags.age_task_id_blocks_1024::2          888                       # Occupied blocks per task id
system.cache_small.tags.age_task_id_blocks_1024::3         2162                       # Occupied blocks per task id
system.cache_small.tags.occ_task_id_percent::1024     0.093109                       # Percentage of cache occupancy per task id
system.cache_small.tags.tag_accesses            17386                       # Number of tag accesses
system.cache_small.tags.data_accesses           17386                       # Number of data accesses
system.cache_small.tags.power_state.pwrStateResidencyTicks::UNDEFINED   3874976000                       # Cumulative time (in ticks) in various power states
system.icache.demand_hits::.cpu.inst          1288946                       # number of demand (read+write) hits
system.icache.demand_hits::total              1288946                       # number of demand (read+write) hits
system.icache.overall_hits::.cpu.inst         1288946                       # number of overall hits
system.icache.overall_hits::total             1288946                       # number of overall hits
system.icache.demand_misses::.cpu.inst           9793                       # number of demand (read+write) misses
system.icache.demand_misses::total               9793                       # number of demand (read+write) misses
system.icache.overall_misses::.cpu.inst          9793                       # number of overall misses
system.icache.overall_misses::total              9793                       # number of overall misses
system.icache.demand_miss_latency::.cpu.inst    265123000                       # number of demand (read+write) miss cycles
system.icache.demand_miss_latency::total    265123000                       # number of demand (read+write) miss cycles
system.icache.overall_miss_latency::.cpu.inst    265123000                       # number of overall miss cycles
system.icache.overall_miss_latency::total    265123000                       # number of overall miss cycles
system.icache.demand_accesses::.cpu.inst      1298739                       # number of demand (read+write) accesses
system.icache.demand_accesses::total          1298739                       # number of demand (read+write) accesses
system.icache.overall_accesses::.cpu.inst      1298739                       # number of overall (read+write) accesses
system.icache.overall_accesses::total         1298739                       # number of overall (read+write) accesses
system.icache.demand_miss_rate::.cpu.inst     0.007540                       # miss rate for demand accesses
system.icache.demand_miss_rate::total        0.007540                       # miss rate for demand accesses
system.icache.overall_miss_rate::.cpu.inst     0.007540                       # miss rate for overall accesses
system.icache.overall_miss_rate::total       0.007540                       # miss rate for overall accesses
system.icache.demand_avg_miss_latency::.cpu.inst 27072.704993                       # average overall miss latency
system.icache.demand_avg_miss_latency::total 27072.704993                       # average overall miss latency
system.icache.overall_avg_miss_latency::.cpu.inst 27072.704993                       # average overall miss latency
system.icache.overall_avg_miss_latency::total 27072.704993                       # average overall miss latency
system.icache.blocked_cycles::no_mshrs              0                       # number of cycles access was blocked
system.icache.blocked_cycles::no_targets            0                       # number of cycles access was blocked
system.icache.blocked::no_mshrs                     0                       # number of cycles access was blocked
system.icache.blocked::no_targets                   0                       # number of cycles access was blocked
system.icache.avg_blocked_cycles::no_mshrs          nan                       # average number of cycles each access was blocked
system.icache.avg_blocked_cycles::no_targets          nan                       # average number of cycles each access was blocked
system.icache.demand_mshr_misses::.cpu.inst         9793                       # number of demand (read+write) MSHR misses
system.icache.demand_mshr_misses::total          9793                       # number of demand (read+write) MSHR misses
system.icache.overall_mshr_misses::.cpu.inst         9793                       # number of overall MSHR misses
system.icache.overall_mshr_misses::total         9793                       # number of overall MSHR misses
system.icache.demand_mshr_miss_latency::.cpu.inst    245537000                       # number of demand (read+write) MSHR miss cycles
system.icache.demand_mshr_miss_latency::total    245537000                       # number of demand (read+write) MSHR miss cycles
system.icache.overall_mshr_miss_latency::.cpu.inst    245537000                       # number of overall MSHR miss cycles
system.icache.overall_mshr_miss_latency::total    245537000                       # number of overall MSHR miss cycles
system.icache.demand_mshr_miss_rate::.cpu.inst     0.007540                       # mshr miss rate for demand accesses
system.icache.demand_mshr_miss_rate::total     0.007540                       # mshr miss rate for demand accesses
system.icache.overall_mshr_miss_rate::.cpu.inst     0.007540                       # mshr miss rate for overall accesses
system.icache.overall_mshr_miss_rate::total     0.007540                       # mshr miss rate for overall accesses
system.icache.demand_avg_mshr_miss_latency::.cpu.inst 25072.704993                       # average overall mshr miss latency
system.icache.demand_avg_mshr_miss_latency::total 25072.704993                       # average overall mshr miss latency
system.icache.overall_avg_mshr_miss_latency::.cpu.inst 25072.704993                       # average overall mshr miss latency
system.icache.overall_avg_mshr_miss_latency::total 25072.704993                       # average overall mshr miss latency
system.icache.replacements                       9538                       # number of replacements
system.icache.ReadReq_hits::.cpu.inst         1288946                       # number of ReadReq hits
system.icache.ReadReq_hits::total             1288946                       # number of ReadReq hits
system.icache.ReadReq_misses::.cpu.inst          9793                       # number of ReadReq misses
system.icache.ReadReq_misses::total              9793                       # number of ReadReq misses
system.icache.ReadReq_miss_latency::.cpu.inst    265123000                       # number of ReadReq miss cycles
system.icache.ReadReq_miss_latency::total    265123000                       # number of ReadReq miss cycles
system.icache.ReadReq_accesses::.cpu.inst      1298739                       # number of ReadReq accesses(hits+misses)
system.icache.ReadReq_accesses::total         1298739                       # number of ReadReq accesses(hits+misses)
system.icache.ReadReq_miss_rate::.cpu.inst     0.007540                       # miss rate for ReadReq accesses
system.icache.ReadReq_miss_rate::total       0.007540                       # miss rate for ReadReq accesses
system.icache.ReadReq_avg_miss_latency::.cpu.inst 27072.704993                       # average ReadReq miss latency
system.icache.ReadReq_avg_miss_latency::total 27072.704993                       # average ReadReq miss latency
system.icache.ReadReq_mshr_misses::.cpu.inst         9793                       # number of ReadReq MSHR misses
system.icache.ReadReq_mshr_misses::total         9793                       # number of ReadReq MSHR misses
system.icache.ReadReq_mshr_miss_latency::.cpu.inst    245537000                       # number of ReadReq MSHR miss cycles
system.icache.ReadReq_mshr_miss_latency::total    245537000                       # number of ReadReq MSHR miss cycles
system.icache.ReadReq_mshr_miss_rate::.cpu.inst     0.007540                       # mshr miss rate for ReadReq accesses
system.icache.ReadReq_mshr_miss_rate::total     0.007540                       # mshr miss rate for ReadReq accesses
system.icache.ReadReq_avg_mshr_miss_latency::.cpu.inst 25072.704993                       # average ReadReq mshr miss latency
system.icache.ReadReq_avg_mshr_miss_latency::total 25072.704993                       # average ReadReq mshr miss latency
system.icache.power_state.pwrStateResidencyTicks::UNDEFINED   3874976000                       # Cumulative time (in ticks) in various power states
system.icache.tags.tagsinuse               248.101840                       # Cycle average of tags in use
system.icache.tags.total_refs                 1101115                       # Total number of references to valid blocks.
system.icache.tags.sampled_refs                  9538                       # Sample count of references to valid blocks.
system.icache.tags.avg_refs                115.445062                       # Average number of references to valid blocks.
system.icache.tags.warmup_cycle                 82000                       # Cycle when the warmup percentage was hit.
system.icache.tags.occ_blocks::.cpu.inst   248.101840                       # Average occupied blocks per requestor
system.icache.tags.occ_percent::.cpu.inst     0.969148                       # Average percentage of cache occupancy
system.icache.tags.occ_percent::total        0.969148                       # Average percentage of cache occupancy
system.icache.tags.occ_task_id_blocks::1024          255                       # Occupied blocks per task id
system.icache.tags.age_task_id_blocks_1024::1           13                       # Occupied blocks per task id
system.icache.tags.age_task_id_blocks_1024::2          181                       # Occupied blocks per task id
system.icache.tags.age_task_id_blocks_1024::3           61                       # Occupied blocks per task id
system.icache.tags.occ_task_id_percent::1024     0.996094                       # Percentage of cache occupancy per task id
system.icache.tags.tag_accesses               1308532                       # Number of tag accesses
system.icache.tags.data_accesses              1308532                       # Number of data accesses
system.icache.tags.power_state.pwrStateResidencyTicks::UNDEFINED   3874976000                       # Cumulative time (in ticks) in various power states
system.membus.trans_dist::ReadReq                3112                       # Transaction distribution
system.membus.trans_dist::ReadResp               3112                       # Transaction distribution
system.membus.trans_dist::WritebackDirty           13                       # Transaction distribution
system.membus.pkt_count_system.cache_small.mem_side::system.mem_ctrl.port         6237                       # Packet count per connected master and slave (bytes)
system.membus.pkt_count_system.cache_small.mem_side::total         6237                       # Packet count per connected master and slave (bytes)
system.membus.pkt_count::total                   6237                       # Packet count per connected master and slave (bytes)
system.membus.pkt_size_system.cache_small.mem_side::system.mem_ctrl.port       200000                       # Cumulative packet size per connected master and slave (bytes)
system.membus.pkt_size_system.cache_small.mem_side::total       200000                       # Cumulative packet size per connected master and slave (bytes)
system.membus.pkt_size::total                  200000                       # Cumulative packet size per connected master and slave (bytes)
system.membus.reqLayer2.occupancy             3177000                       # Layer occupancy (ticks)
system.membus.reqLayer2.utilization               0.1                       # Layer utilization (%)
system.membus.respLayer1.occupancy           16595250                       # Layer occupancy (ticks)
system.membus.respLayer1.utilization              0.4                       # Layer utilization (%)
system.membus.power_state.pwrStateResidencyTicks::UNDEFINED   3874976000                       # Cumulative time (in ticks) in various power states
system.mem_ctrl.bytes_read::.cpu.inst          102272                       # Number of bytes read from this memory
system.mem_ctrl.bytes_read::.cpu.data           96896                       # Number of bytes read from this memory
system.mem_ctrl.bytes_read::total              199168                       # Number of bytes read from this memory
system.mem_ctrl.bytes_inst_read::.cpu.inst       102272                       # Number of instructions bytes read from this memory
system.mem_ctrl.bytes_inst_read::total         102272                       # Number of instructions bytes read from this memory
system.mem_ctrl.bytes_written::.writebacks          832                       # Number of bytes written to this memory
system.mem_ctrl.bytes_written::total              832                       # Number of bytes written to this memory
system.mem_ctrl.num_reads::.cpu.inst             1598                       # Number of read requests responded to by this memory
system.mem_ctrl.num_reads::.cpu.data             1514                       # Number of read requests responded to by this memory
system.mem_ctrl.num_reads::total                 3112                       # Number of read requests responded to by this memory
system.mem_ctrl.num_writes::.writebacks            13                       # Number of write requests responded to by this memory
system.mem_ctrl.num_writes::total                  13                       # Number of write requests responded to by this memory
system.mem_ctrl.bw_read::.cpu.inst           26392938                       # Total read bandwidth from this memory (bytes/s)
system.mem_ctrl.bw_read::.cpu.data           25005574                       # Total read bandwidth from this memory (bytes/s)
system.mem_ctrl.bw_read::total               51398512                       # Total read bandwidth from this memory (bytes/s)
system.mem_ctrl.bw_inst_read::.cpu.inst      26392938                       # Instruction read bandwidth from this memory (bytes/s)
system.mem_ctrl.bw_inst_read::total          26392938                       # Instruction read bandwidth from this memory (bytes/s)
system.mem_ctrl.bw_write::.writebacks          214711                       # Write bandwidth from this memory (bytes/s)
system.mem_ctrl.bw_write::total                214711                       # Write bandwidth from this memory (bytes/s)
system.mem_ctrl.bw_total::.writebacks          214711                       # Total bandwidth to/from this memory (bytes/s)
system.mem_ctrl.bw_total::.cpu.inst          26392938                       # Total bandwidth to/from this memory (bytes/s)
system.mem_ctrl.bw_total::.cpu.data          25005574                       # Total bandwidth to/from this memory (bytes/s)
system.mem_ctrl.bw_total::total              51613223                       # Total bandwidth to/from this memory (bytes/s)
system.mem_ctrl.avgPriority_.writebacks::samples        13.00                       # Average QoS priority value for accepted requests
system.mem_ctrl.avgPriority_.cpu.inst::samples      1598.00                       # Average QoS priority value for accepted requests
system.mem_ctrl.avgPriority_.cpu.data::samples      1513.00                       # Average QoS priority value for accepted requests
system.mem_ctrl.priorityMinLatency       0.000000018750                       # per QoS priority minimum request to response latency (s)
system.mem_ctrl.priorityMaxLatency       0.000000578500                       # per QoS priority maximum request to response latency (s)
system.mem_ctrl.numReadWriteTurnArounds             0                       # Number of turnarounds from READ to WRITE
system.mem_ctrl.numWriteReadTurnArounds             0                       # Number of turnarounds from WRITE to READ
system.mem_ctrl.numStayReadState                 7229                       # Number of times bus staying in READ state
system.mem_ctrl.numStayWriteState                   0                       # Number of times bus staying in WRITE state
system.mem_ctrl.readReqs                         3112                       # Number of read requests accepted
system.mem_ctrl.writeReqs                          13                       # Number of write requests accepted
system.mem_ctrl.readBursts                       3112                       # Number of DRAM read bursts, including those serviced by the write queue
system.mem_ctrl.writeBursts                        13                       # Number of DRAM write bursts, including those merged in the write queue
system.mem_ctrl.servicedByWrQ                       1                       # Number of DRAM read bursts serviced by the write queue
system.mem_ctrl.mergedWrBursts                      0                       # Number of DRAM write bursts merged with an existing one
system.mem_ctrl.neitherReadNorWriteReqs             0                       # Number of requests that are neither read nor write
system.mem_ctrl.perBankRdBursts::0                201                       # Per bank write bursts
system.mem_ctrl.perBankRdBursts::1                293                       # Per bank write bursts
system.mem_ctrl.perBankRdBursts::2                162                       # Per bank write bursts
system.mem_ctrl.perBankRdBursts::3                238                       # Per bank write bursts
system.mem_ctrl.perBankRdBursts::4                456                       # Per bank write bursts
system.mem_ctrl.perBankRdBursts::5                233                       # Per bank write bursts
system.mem_ctrl.perBankRdBursts::6                146                       # Per bank write bursts
system.mem_ctrl.perBankRdBursts::7                157                       # Per bank write bursts
system.mem_ctrl.perBankRdBursts::8                198                       # Per bank write bursts
system.mem_ctrl.perBankRdBursts::9                158                       # Per bank write bursts
system.mem_ctrl.perBankRdBursts::10                95                       # Per bank write bursts
system.mem_ctrl.perBankRdBursts::11               138                       # Per bank write bursts
system.mem_ctrl.perBankRdBursts::12               176                       # Per bank write bursts
system.mem_ctrl.perBankRdBursts::13               132                       # Per bank write bursts
system.mem_ctrl.perBankRdBursts::14               123                       # Per bank write bursts
system.mem_ctrl.perBankRdBursts::15               205                       # Per bank write bursts
system.mem_ctrl.perBankWrBursts::0                  0                       # Per bank write bursts
system.mem_ctrl.perBankWrBursts::1                  0                       # Per bank write bursts
system.mem_ctrl.perBankWrBursts::2                  0                       # Per bank write bursts
system.mem_ctrl.perBankWrBursts::3                  0                       # Per bank write bursts
system.mem_ctrl.perBankWrBursts::4                  0                       # Per bank write bursts
system.mem_ctrl.perBankWrBursts::5                  0                       # Per bank write bursts
system.mem_ctrl.perBankWrBursts::6                  0                       # Per bank write bursts
system.mem_ctrl.perBankWrBursts::7                  0                       # Per bank write bursts
system.mem_ctrl.perBankWrBursts::8                  0                       # Per bank write bursts
system.mem_ctrl.perBankWrBursts::9                  0                       # Per bank write bursts
system.mem_ctrl.perBankWrBursts::10                 0                       # Per bank write bursts
system.mem_ctrl.perBankWrBursts::11                 0                       # Per bank write bursts
system.mem_ctrl.perBankWrBursts::12                 0                       # Per bank write bursts
system.mem_ctrl.perBankWrBursts::13                 0                       # Per bank write bursts
system.mem_ctrl.perBankWrBursts::14                 0                       # Per bank write bursts
system.mem_ctrl.perBankWrBursts::15                 0                       # Per bank write bursts
system.mem_ctrl.avgRdQLen                        1.00                       # Average read queue length when enqueuing
system.mem_ctrl.avgWrQLen                        2.99                       # Average write queue length when enqueuing
system.mem_ctrl.totQLat                      25497500                       # Total ticks spent queuing
system.mem_ctrl.totBusLat                    15555000                       # Total ticks spent in databus transfers
system.mem_ctrl.totMemAccLat                 83828750                       # Total ticks spent from burst creation until serviced by the DRAM
system.mem_ctrl.avgQLat                       8195.92                       # Average queueing delay per DRAM burst
system.mem_ctrl.avgBusLat                     5000.00                       # Average bus latency per DRAM burst
system.mem_ctrl.avgMemAccLat                 26945.92                       # Average memory access latency per DRAM burst
system.mem_ctrl.numRdRetry                          0                       # Number of times read queue was full causing retry
system.mem_ctrl.numWrRetry                          0                       # Number of times write queue was full causing retry
system.mem_ctrl.readRowHits                      2212                       # Number of row buffer hits during reads
system.mem_ctrl.writeRowHits                        0                       # Number of row buffer hits during writes
system.mem_ctrl.readRowHitRate                  71.10                       # Row buffer hit rate for reads
system.mem_ctrl.writeRowHitRate                  0.00                       # Row buffer hit rate for writes
system.mem_ctrl.readPktSize::0                      0                       # Read request sizes (log2)
system.mem_ctrl.readPktSize::1                      0                       # Read request sizes (log2)
system.mem_ctrl.readPktSize::2                      0                       # Read request sizes (log2)
system.mem_ctrl.readPktSize::3                      0                       # Read request sizes (log2)
system.mem_ctrl.readPktSize::4                      0                       # Read request sizes (log2)
system.mem_ctrl.readPktSize::5                      0                       # Read request sizes (log2)
system.mem_ctrl.readPktSize::6                   3112                       # Read request sizes (log2)
system.mem_ctrl.writePktSize::0                     0                       # Write request sizes (log2)
system.mem_ctrl.writePktSize::1                     0                       # Write request sizes (log2)
system.mem_ctrl.writePktSize::2                     0                       # Write request sizes (log2)
system.mem_ctrl.writePktSize::3                     0                       # Write request sizes (log2)
system.mem_ctrl.writePktSize::4                     0                       # Write request sizes (log2)
system.mem_ctrl.writePktSize::5                     0                       # Write request sizes (log2)
system.mem_ctrl.writePktSize::6                    13                       # Write request sizes (log2)
system.mem_ctrl.rdQLenPdf::0                     3111                       # What read queue length does an incoming req see
system.mem_ctrl.rdQLenPdf::1                        0                       # What read queue length does an incoming req see
system.mem_ctrl.rdQLenPdf::2                        0                       # What read queue length does an incoming req see
system.mem_ctrl.rdQLenPdf::3                        0                       # What read queue length does an incoming req see
system.mem_ctrl.rdQLenPdf::4                        0                       # What read queue length does an incoming req see
system.mem_ctrl.rdQLenPdf::5                        0                       # What read queue length does an incoming req see
system.mem_ctrl.rdQLenPdf::6                        0                       # What read queue length does an incoming req see
system.mem_ctrl.rdQLenPdf::7                        0                       # What read queue length does an incoming req see
system.mem_ctrl.rdQLenPdf::8                        0                       # What read queue length does an incoming req see
system.mem_ctrl.rdQLenPdf::9                        0                       # What read queue length does an incoming req see
system.mem_ctrl.rdQLenPdf::10                       0                       # What read queue length does an incoming req see
system.mem_ctrl.rdQLenPdf::11                       0                       # What read queue length does an incoming req see
system.mem_ctrl.rdQLenPdf::12                       0                       # What read queue length does an incoming req see
system.mem_ctrl.rdQLenPdf::13                       0                       # What read queue length does an incoming req see
system.mem_ctrl.rdQLenPdf::14                       0                       # What read queue length does an incoming req see
system.mem_ctrl.rdQLenPdf::15                       0                       # What read queue length does an incoming req see
system.mem_ctrl.rdQLenPdf::16                       0                       # What read queue length does an incoming req see
system.mem_ctrl.rdQLenPdf::17                       0                       # What read queue length does an incoming req see
system.mem_ctrl.rdQLenPdf::18                       0                       # What read queue length does an incoming req see
system.mem_ctrl.rdQLenPdf::19                       0                       # What read queue length does an incoming req see
system.mem_ctrl.rdQLenPdf::20                       0                       # What read queue length does an incoming req see
system.mem_ctrl.rdQLenPdf::21                       0                       # What read queue length does an incoming req see
system.mem_ctrl.rdQLenPdf::22                       0                       # What read queue length does an incoming req see
system.mem_ctrl.rdQLenPdf::23                       0                       # What read queue length does an incoming req see
system.mem_ctrl.rdQLenPdf::24                       0                       # What read queue length does an incoming req see
system.mem_ctrl.rdQLenPdf::25                       0                       # What read queue length does an incoming req see
system.mem_ctrl.rdQLenPdf::26                       0                       # What read queue length does an incoming req see
system.mem_ctrl.rdQLenPdf::27                       0                       # What read queue length does an incoming req see
system.mem_ctrl.rdQLenPdf::28                       0                       # What read queue length does an incoming req see
system.mem_ctrl.rdQLenPdf::29                       0                       # What read queue length does an incoming req see
system.mem_ctrl.rdQLenPdf::30                       0                       # What read queue length does an incoming req see
system.mem_ctrl.rdQLenPdf::31                       0                       # What read queue length does an incoming req see
system.mem_ctrl.wrQLenPdf::0                        1                       # What write queue length does an incoming req see
system.mem_ctrl.wrQLenPdf::1                        1                       # What write queue length does an incoming req see
system.mem_ctrl.wrQLenPdf::2                        1                       # What write queue length does an incoming req see
system.mem_ctrl.wrQLenPdf::3                        1                       # What write queue length does an incoming req see
system.mem_ctrl.wrQLenPdf::4                        1                       # What write queue length does an incoming req see
system.mem_ctrl.wrQLenPdf::5                        1                       # What write queue length does an incoming req see
system.mem_ctrl.wrQLenPdf::6                        1                       # What write queue length does an incoming req see
system.mem_ctrl.wrQLenPdf::7                        1                       # What write queue length does an incoming req see
system.mem_ctrl.wrQLenPdf::8                        1                       # What write queue length does an incoming req see
system.mem_ctrl.wrQLenPdf::9                        1                       # What write queue length does an incoming req see
system.mem_ctrl.wrQLenPdf::10                       1                       # What write queue length does an incoming req see
system.mem_ctrl.wrQLenPdf::11                       1                       # What write queue length does an incoming req see
system.mem_ctrl.wrQLenPdf::12                       1                       # What write queue length does an incoming req see
system.mem_ctrl.wrQLenPdf::13                       0                       # What write queue length does an incoming req see
system.mem_ctrl.wrQLenPdf::14                       0                       # What write queue length does an incoming req see
system.mem_ctrl.wrQLenPdf::15                       0                       # What write queue length does an incoming req see
system.mem_ctrl.wrQLenPdf::16                       0                       # What write queue length does an incoming req see
system.mem_ctrl.wrQLenPdf::17                       0                       # What write queue length does an incoming req see
system.mem_ctrl.wrQLenPdf::18                       0                       # What write queue length does an incoming req see
system.mem_ctrl.wrQLenPdf::19                       0                       # What write queue length does an incoming req see
system.mem_ctrl.wrQLenPdf::20                       0                       # What write queue length does an incoming req see
system.mem_ctrl.wrQLenPdf::21                       0                       # What write queue length does an incoming req see
system.mem_ctrl.wrQLenPdf::22                       0                       # What write queue length does an incoming req see
system.mem_ctrl.wrQLenPdf::23                       0                       # What write queue length does an incoming req see
system.mem_ctrl.wrQLenPdf::24                       0                       # What write queue length does an incoming req see
system.mem_ctrl.wrQLenPdf::25                       0                       # What write queue length does an incoming req see
system.mem_ctrl.wrQLenPdf::26                       0                       # What write queue length does an incoming req see
system.mem_ctrl.wrQLenPdf::27                       0                       # What write queue length does an incoming req see
system.mem_ctrl.wrQLenPdf::28                       0                       # What write queue length does an incoming req see
system.mem_ctrl.wrQLenPdf::29                       0                       # What write queue length does an incoming req see
system.mem_ctrl.wrQLenPdf::30                       0                       # What write queue length does an incoming req see
system.mem_ctrl.wrQLenPdf::31                       0                       # What write queue length does an incoming req see
system.mem_ctrl.wrQLenPdf::32                       0                       # What write queue length does an incoming req see
system.mem_ctrl.wrQLenPdf::33                       0                       # What write queue length does an incoming req see
system.mem_ctrl.wrQLenPdf::34                       0                       # What write queue length does an incoming req see
system.mem_ctrl.wrQLenPdf::35                       0                       # What write queue length does an incoming req see
system.mem_ctrl.wrQLenPdf::36                       0                       # What write queue length does an incoming req see
system.mem_ctrl.wrQLenPdf::37                       0                       # What write queue length does an incoming req see
system.mem_ctrl.wrQLenPdf::38                       0                       # What write queue length does an incoming req see
system.mem_ctrl.wrQLenPdf::39                       0                       # What write queue length does an incoming req see
system.mem_ctrl.wrQLenPdf::40                       0                       # What write queue length does an incoming req see
system.mem_ctrl.wrQLenPdf::41                       0                       # What write queue length does an incoming req see
system.mem_ctrl.wrQLenPdf::42                       0                       # What write queue length does an incoming req see
system.mem_ctrl.wrQLenPdf::43                       0                       # What write queue length does an incoming req see
system.mem_ctrl.wrQLenPdf::44                       0                       # What write queue length does an incoming req see
system.mem_ctrl.wrQLenPdf::45                       0                       # What write queue length does an incoming req see
system.mem_ctrl.wrQLenPdf::46                       0                       # What write queue length does an incoming req see
system.mem_ctrl.wrQLenPdf::47                       0                       # What write queue length does an incoming req see
system.mem_ctrl.wrQLenPdf::48                       0                       # What write queue length does an incoming req see
system.mem_ctrl.wrQLenPdf::49                       0                       # What write queue length does an incoming req see
system.mem_ctrl.wrQLenPdf::50                       0                       # What write queue length does an incoming req see
system.mem_ctrl.wrQLenPdf::51                       0                       # What write queue length does an incoming req see
system.mem_ctrl.wrQLenPdf::52                       0                       # What write queue length does an incoming req see
system.mem_ctrl.wrQLenPdf::53                       0                       # What write queue length does an incoming req see
system.mem_ctrl.wrQLenPdf::54                       0                       # What write queue length does an incoming req see
system.mem_ctrl.wrQLenPdf::55                       0                       # What write queue length does an incoming req see
system.mem_ctrl.wrQLenPdf::56                       0                       # What write queue length does an incoming req see
system.mem_ctrl.wrQLenPdf::57                       0                       # What write queue length does an incoming req see
system.mem_ctrl.wrQLenPdf::58                       0                       # What write queue length does an incoming req see
system.mem_ctrl.wrQLenPdf::59                       0                       # What write queue length does an incoming req see
system.mem_ctrl.wrQLenPdf::60                       0                       # What write queue length does an incoming req see
system.mem_ctrl.wrQLenPdf::61                       0                       # What write queue length does an incoming req see
system.mem_ctrl.wrQLenPdf::62                       0                       # What write queue length does an incoming req see
system.mem_ctrl.wrQLenPdf::63                       0                       # What write queue length does an incoming req see
system.mem_ctrl.bytesPerActivate::samples          899                       # Bytes accessed per row activation
system.mem_ctrl.bytesPerActivate::mean     221.472747                       # Bytes accessed per row activation
system.mem_ctrl.bytesPerActivate::gmean    148.410007                       # Bytes accessed per row activation
system.mem_ctrl.bytesPerActivate::stdev    236.508272                       # Bytes accessed per row activation
system.mem_ctrl.bytesPerActivate::0-127           351     39.04%     39.04% # Bytes accessed per row activation
system.mem_ctrl.bytesPerActivate::128-255          273     30.37%     69.41% # Bytes accessed per row activation
system.mem_ctrl.bytesPerActivate::256-383          126     14.02%     83.43% # Bytes accessed per row activation
system.mem_ctrl.bytesPerActivate::384-511           48      5.34%     88.77% # Bytes accessed per row activation
system.mem_ctrl.bytesPerActivate::512-639           34      3.78%     92.55% # Bytes accessed per row activation
system.mem_ctrl.bytesPerActivate::640-767           16      1.78%     94.33% # Bytes accessed per row activation
system.mem_ctrl.bytesPerActivate::768-895            6      0.67%     94.99% # Bytes accessed per row activation
system.mem_ctrl.bytesPerActivate::896-1023            2      0.22%     95.22% # Bytes accessed per row activation
system.mem_ctrl.bytesPerActivate::1024-1151           43      4.78%    100.00% # Bytes accessed per row activation
system.mem_ctrl.bytesPerActivate::total           899                       # Bytes accessed per row activation
system.mem_ctrl.bytesReadDRAM                  199104                       # Total number of bytes read from DRAM
system.mem_ctrl.bytesReadWrQ                       64                       # Total number of bytes read from write queue
system.mem_ctrl.bytesWritten                        0                       # Total number of bytes written to DRAM
system.mem_ctrl.bytesReadSys                   199168                       # Total read bytes from the system interface side
system.mem_ctrl.bytesWrittenSys                   832                       # Total written bytes from the system interface side
system.mem_ctrl.avgRdBW                         51.38                       # Average DRAM read bandwidth in MiByte/s
system.mem_ctrl.avgWrBW                          0.00                       # Average achieved write bandwidth in MiByte/s
system.mem_ctrl.avgRdBWSys                      51.40                       # Average system read bandwidth in MiByte/s
system.mem_ctrl.avgWrBWSys                       0.21                       # Average system write bandwidth in MiByte/s
system.mem_ctrl.peakBW                       12800.00                       # Theoretical peak bandwidth in MiByte/s
system.mem_ctrl.busUtil                          0.40                       # Data bus utilization in percentage
system.mem_ctrl.busUtilRead                      0.40                       # Data bus utilization in percentage for reads
system.mem_ctrl.busUtilWrite                     0.00                       # Data bus utilization in percentage for writes
system.mem_ctrl.totGap                     3825108000                       # Total gap between requests
system.mem_ctrl.avgGap                     1224034.56                       # Average gap between requests
system.mem_ctrl.masterReadBytes::.cpu.inst       102272                       # Per-master bytes read from memory
system.mem_ctrl.masterReadBytes::.cpu.data        96832                       # Per-master bytes read from memory
system.mem_ctrl.masterReadRate::.cpu.inst 26392937.659484859556                       # Per-master bytes read from memory rate (Bytes/sec)
system.mem_ctrl.masterReadRate::.cpu.data 24989057.996746301651                       # Per-master bytes read from memory rate (Bytes/sec)
system.mem_ctrl.masterReadAccesses::.cpu.inst         1598                       # Per-master read serviced memory accesses
system.mem_ctrl.masterReadAccesses::.cpu.data         1514                       # Per-master read serviced memory accesses
system.mem_ctrl.masterWriteAccesses::.writebacks           13                       # Per-master write serviced memory accesses
system.mem_ctrl.masterReadTotalLat::.cpu.inst     42917250                       # Per-master read total memory access latency
system.mem_ctrl.masterReadTotalLat::.cpu.data     40911500                       # Per-master read total memory access latency
system.mem_ctrl.masterReadAvgLat::.cpu.inst     26856.85                       # Per-master read average memory access latency
system.mem_ctrl.masterReadAvgLat::.cpu.data     27022.13                       # Per-master read average memory access latency
system.mem_ctrl.masterWriteAvgLat::.writebacks         0.00                       # Per-master write average memory access latency
system.mem_ctrl.pageHitRate                     70.81                       # Row buffer hit rate, read and write combined
system.mem_ctrl.rank1.actEnergy               2241960                       # Energy for activate commands per rank (pJ)
system.mem_ctrl.rank1.preEnergy               1191630                       # Energy for precharge commands per rank (pJ)
system.mem_ctrl.rank1.readEnergy              8746500                       # Energy for read commands per rank (pJ)
system.mem_ctrl.rank1.writeEnergy                   0                       # Energy for write commands per rank (pJ)
system.mem_ctrl.rank1.refreshEnergy      305476080.000000                       # Energy for refresh commands per rank (pJ)
system.mem_ctrl.rank1.actBackEnergy         390870660                       # Energy for active background per rank (pJ)
system.mem_ctrl.rank1.preBackEnergy        1158836640                       # Energy for precharge background per rank (pJ)
system.mem_ctrl.rank1.actPowerDownEnergy            0                       # Energy for active power-down per rank (pJ)
system.mem_ctrl.rank1.prePowerDownEnergy            0                       # Energy for precharge power-down per rank (pJ)
system.mem_ctrl.rank1.selfRefreshEnergy             0                       # Energy for self refresh per rank (pJ)
system.mem_ctrl.rank1.totalEnergy          1867363470                       # Total energy per rank (pJ)
system.mem_ctrl.rank1.averagePower         481.903235                       # Core power per rank (mW)
system.mem_ctrl.rank1.totalIdleTime                 0                       # Total Idle time Per DRAM Rank
system.mem_ctrl.rank1.memoryStateTime::IDLE   3008894500                       # Time in different power states
system.mem_ctrl.rank1.memoryStateTime::REF    129220000                       # Time in different power states
system.mem_ctrl.rank1.memoryStateTime::SREF            0                       # Time in different power states
system.mem_ctrl.rank1.memoryStateTime::PRE_PDN            0                       # Time in different power states
system.mem_ctrl.rank1.memoryStateTime::ACT    736861500                       # Time in different power states
system.mem_ctrl.rank1.memoryStateTime::ACT_PDN            0                       # Time in different power states
system.mem_ctrl.rank0.actEnergy               4176900                       # Energy for activate commands per rank (pJ)
system.mem_ctrl.rank0.preEnergy               2220075                       # Energy for precharge commands per rank (pJ)
system.mem_ctrl.rank0.readEnergy             13466040                       # Energy for read commands per rank (pJ)
system.mem_ctrl.rank0.writeEnergy                   0                       # Energy for write commands per rank (pJ)
system.mem_ctrl.rank0.refreshEnergy      305476080.000000                       # Energy for refresh commands per rank (pJ)
system.mem_ctrl.rank0.actBackEnergy         640252500                       # Energy for active background per rank (pJ)
system.mem_ctrl.rank0.preBackEnergy         948830880                       # Energy for precharge background per rank (pJ)
system.mem_ctrl.rank0.actPowerDownEnergy            0                       # Energy for active power-down per rank (pJ)
system.mem_ctrl.rank0.prePowerDownEnergy            0                       # Energy for precharge power-down per rank (pJ)
system.mem_ctrl.rank0.selfRefreshEnergy             0                       # Energy for self refresh per rank (pJ)
system.mem_ctrl.rank0.totalEnergy          1914422475                       # Total energy per rank (pJ)
system.mem_ctrl.rank0.averagePower         494.047570                       # Core power per rank (mW)
system.mem_ctrl.rank0.totalIdleTime                 0                       # Total Idle time Per DRAM Rank
system.mem_ctrl.rank0.memoryStateTime::IDLE   2460739000                       # Time in different power states
system.mem_ctrl.rank0.memoryStateTime::REF    129220000                       # Time in different power states
system.mem_ctrl.rank0.memoryStateTime::SREF            0                       # Time in different power states
system.mem_ctrl.rank0.memoryStateTime::PRE_PDN            0                       # Time in different power states
system.mem_ctrl.rank0.memoryStateTime::ACT   1285017000                       # Time in different power states
system.mem_ctrl.rank0.memoryStateTime::ACT_PDN            0                       # Time in different power states
system.mem_ctrl.power_state.pwrStateResidencyTicks::UNDEFINED   3874976000                       # Cumulative time (in ticks) in various power states
system.cache_medium.blocked_cycles::no_mshrs            0                       # number of cycles access was blocked
system.cache_medium.blocked_cycles::no_targets            0                       # number of cycles access was blocked
system.cache_medium.blocked::no_mshrs               0                       # number of cycles access was blocked
system.cache_medium.blocked::no_targets             0                       # number of cycles access was blocked
system.cache_medium.avg_blocked_cycles::no_mshrs          nan                       # average number of cycles each access was blocked
system.cache_medium.avg_blocked_cycles::no_targets          nan                       # average number of cycles each access was blocked
system.cache_medium.replacements                    0                       # number of replacements
system.cache_medium.power_state.pwrStateResidencyTicks::UNDEFINED   3874976000                       # Cumulative time (in ticks) in various power states
system.cache_medium.tags.tagsinuse                  0                       # Cycle average of tags in use
system.cache_medium.tags.total_refs                 0                       # Total number of references to valid blocks.
system.cache_medium.tags.sampled_refs               0                       # Sample count of references to valid blocks.
system.cache_medium.tags.avg_refs                 nan                       # Average number of references to valid blocks.
system.cache_medium.tags.warmup_cycle               0                       # Cycle when the warmup percentage was hit.
system.cache_medium.tags.tag_accesses               0                       # Number of tag accesses
system.cache_medium.tags.data_accesses              0                       # Number of data accesses
system.cache_medium.tags.power_state.pwrStateResidencyTicks::UNDEFINED   3874976000                       # Cumulative time (in ticks) in various power states
system.clk_domain.clock                          1000                       # Clock period in ticks
system.clk_domain.voltage_domain.voltage            1                       # Voltage in Volts
system.dcache.demand_hits::.cpu.data           375692                       # number of demand (read+write) hits
system.dcache.demand_hits::total               375692                       # number of demand (read+write) hits
system.dcache.overall_hits::.cpu.data          378494                       # number of overall hits
system.dcache.overall_hits::total              378494                       # number of overall hits
system.dcache.demand_misses::.cpu.data           9563                       # number of demand (read+write) misses
system.dcache.demand_misses::total               9563                       # number of demand (read+write) misses
system.dcache.overall_misses::.cpu.data          9813                       # number of overall misses
system.dcache.overall_misses::total              9813                       # number of overall misses
system.dcache.demand_miss_latency::.cpu.data    248166000                       # number of demand (read+write) miss cycles
system.dcache.demand_miss_latency::total    248166000                       # number of demand (read+write) miss cycles
system.dcache.overall_miss_latency::.cpu.data    253681000                       # number of overall miss cycles
system.dcache.overall_miss_latency::total    253681000                       # number of overall miss cycles
system.dcache.demand_accesses::.cpu.data       385255                       # number of demand (read+write) accesses
system.dcache.demand_accesses::total           385255                       # number of demand (read+write) accesses
system.dcache.overall_accesses::.cpu.data       388307                       # number of overall (read+write) accesses
system.dcache.overall_accesses::total          388307                       # number of overall (read+write) accesses
system.dcache.demand_miss_rate::.cpu.data     0.024823                       # miss rate for demand accesses
system.dcache.demand_miss_rate::total        0.024823                       # miss rate for demand accesses
system.dcache.overall_miss_rate::.cpu.data     0.025271                       # miss rate for overall accesses
system.dcache.overall_miss_rate::total       0.025271                       # miss rate for overall accesses
system.dcache.demand_avg_miss_latency::.cpu.data 25950.643104                       # average overall miss latency
system.dcache.demand_avg_miss_latency::total 25950.643104                       # average overall miss latency
system.dcache.overall_avg_miss_latency::.cpu.data 25851.523489                       # average overall miss latency
system.dcache.overall_avg_miss_latency::total 25851.523489                       # average overall miss latency
system.dcache.blocked_cycles::no_mshrs              0                       # number of cycles access was blocked
system.dcache.blocked_cycles::no_targets            0                       # number of cycles access was blocked
system.dcache.blocked::no_mshrs                     0                       # number of cycles access was blocked
system.dcache.blocked::no_targets                   0                       # number of cycles access was blocked
system.dcache.avg_blocked_cycles::no_mshrs          nan                       # average number of cycles each access was blocked
system.dcache.avg_blocked_cycles::no_targets          nan                       # average number of cycles each access was blocked
system.dcache.writebacks::.writebacks            4714                       # number of writebacks
system.dcache.writebacks::total                  4714                       # number of writebacks
system.dcache.demand_mshr_misses::.cpu.data         9563                       # number of demand (read+write) MSHR misses
system.dcache.demand_mshr_misses::total          9563                       # number of demand (read+write) MSHR misses
system.dcache.overall_mshr_misses::.cpu.data         9813                       # number of overall MSHR misses
system.dcache.overall_mshr_misses::total         9813                       # number of overall MSHR misses
system.dcache.demand_mshr_miss_latency::.cpu.data    229042000                       # number of demand (read+write) MSHR miss cycles
system.dcache.demand_mshr_miss_latency::total    229042000                       # number of demand (read+write) MSHR miss cycles
system.dcache.overall_mshr_miss_latency::.cpu.data    234057000                       # number of overall MSHR miss cycles
system.dcache.overall_mshr_miss_latency::total    234057000                       # number of overall MSHR miss cycles
system.dcache.demand_mshr_miss_rate::.cpu.data     0.024823                       # mshr miss rate for demand accesses
system.dcache.demand_mshr_miss_rate::total     0.024823                       # mshr miss rate for demand accesses
system.dcache.overall_mshr_miss_rate::.cpu.data     0.025271                       # mshr miss rate for overall accesses
system.dcache.overall_mshr_miss_rate::total     0.025271                       # mshr miss rate for overall accesses
system.dcache.demand_avg_mshr_miss_latency::.cpu.data 23950.852243                       # average overall mshr miss latency
system.dcache.demand_avg_mshr_miss_latency::total 23950.852243                       # average overall mshr miss latency
system.dcache.overall_avg_mshr_miss_latency::.cpu.data 23851.727301                       # average overall mshr miss latency
system.dcache.overall_avg_mshr_miss_latency::total 23851.727301                       # average overall mshr miss latency
system.dcache.replacements                       9556                       # number of replacements
system.dcache.ReadReq_hits::.cpu.data          235389                       # number of ReadReq hits
system.dcache.ReadReq_hits::total              235389                       # number of ReadReq hits
system.dcache.ReadReq_misses::.cpu.data          6952                       # number of ReadReq misses
system.dcache.ReadReq_misses::total              6952                       # number of ReadReq misses
system.dcache.ReadReq_miss_latency::.cpu.data    159550000                       # number of ReadReq miss cycles
system.dcache.ReadReq_miss_latency::total    159550000                       # number of ReadReq miss cycles
system.dcache.ReadReq_accesses::.cpu.data       242341                       # number of ReadReq accesses(hits+misses)
system.dcache.ReadReq_accesses::total          242341                       # number of ReadReq accesses(hits+misses)
system.dcache.ReadReq_miss_rate::.cpu.data     0.028687                       # miss rate for ReadReq accesses
system.dcache.ReadReq_miss_rate::total       0.028687                       # miss rate for ReadReq accesses
system.dcache.ReadReq_avg_miss_latency::.cpu.data 22950.230150                       # average ReadReq miss latency
[...]
system.dcache.tags.age_task_id_blocks_1024::2           92                       # Occupied blocks per task id
system.dcache.tags.age_task_id_blocks_1024::3          101                       # Occupied blocks per task id
system.dcache.tags.occ_task_id_percent::1024            1                       # Percentage of cache occupancy per task id
system.dcache.tags.tag_accesses               2401448                       # Number of tag accesses
system.dcache.tags.data_accesses              2401448                       # Number of data accesses
system.dcache.tags.power_state.pwrStateResidencyTicks::UNDEFINED  25263671000                       # Cumulative time (in ticks) in various power states
system.cache_large.blocked_cycles::no_mshrs            0                       # number of cycles access was blocked
system.cache_large.blocked_cycles::no_targets            0                       # number of cycles access was blocked
system.cache_large.blocked::no_mshrs                0                       # number of cycles access was blocked
system.cache_large.blocked::no_targets              0                       # number of cycles access was blocked
system.cache_large.avg_blocked_cycles::no_mshrs          nan                       # average number of cycles each access was blocked
system.cache_large.avg_blocked_cycles::no_targets          nan                       # average number of cycles each access was blocked
system.cache_large.replacements                     0                       # number of replacements
system.cache_large.power_state.pwrStateResidencyTicks::UNDEFINED  25263671000                       # Cumulative time (in ticks) in various power states
system.cache_large.tags.tagsinuse                   0                       # Cycle average of tags in use
system.cache_large.tags.total_refs                  0                       # Total number of references to valid blocks.
system.cache_large.tags.sampled_refs                0                       # Sample count of references to valid blocks.
system.cache_large.tags.avg_refs                  nan                       # Average number of references to valid blocks.
system.cache_large.tags.warmup_cycle                0                       # Cycle when the warmup percentage was hit.
system.cache_large.tags.tag_accesses                0                       # Number of tag accesses
system.cache_large.tags.data_accesses               0                       # Number of data accesses
system.cache_large.tags.power_state.pwrStateResidencyTicks::UNDEFINED  25263671000                       # Cumulative time (in ticks) in various power states
system.l2cache.demand_hits::.cpu.inst           18359                       # number of demand (read+write) hits
system.l2cache.demand_hits::.cpu.data           36303                       # number of demand (read+write) hits
system.l2cache.demand_hits::total               54662                       # number of demand (read+write) hits
system.l2cache.overall_hits::.cpu.inst          18359                       # number of overall hits
system.l2cache.overall_hits::.cpu.data          36303                       # number of overall hits
system.l2cache.overall_hits::total              54662                       # number of overall hits
system.l2cache.demand_misses::.cpu.inst         22985                       # number of demand (read+write) misses
system.l2cache.demand_misses::.cpu.data         37140                       # number of demand (read+write) misses
system.l2cache.demand_misses::total             60125                       # number of demand (read+write) misses
system.l2cache.overall_misses::.cpu.inst        22985                       # number of overall misses
system.l2cache.overall_misses::.cpu.data        37140                       # number of overall misses
system.l2cache.overall_misses::total            60125                       # number of overall misses
system.l2cache.demand_miss_latency::.cpu.inst    471196000                       # number of demand (read+write) miss cycles
system.l2cache.demand_miss_latency::.cpu.data    927518000                       # number of demand (read+write) miss cycles
system.l2cache.demand_miss_latency::total   1398714000                       # number of demand (read+write) miss cycles
system.l2cache.overall_miss_latency::.cpu.inst    471196000                       # number of overall miss cycles
system.l2cache.overall_miss_latency::.cpu.data    927518000                       # number of overall miss cycles
system.l2cache.overall_miss_latency::total   1398714000                       # number of overall miss cycles
system.l2cache.demand_accesses::.cpu.inst        41344                       # number of demand (read+write) accesses
system.l2cache.demand_accesses::.cpu.data        73443                       # number of demand (read+write) accesses
system.l2cache.demand_accesses::total          114787                       # number of demand (read+write) accesses
system.l2cache.overall_accesses::.cpu.inst        41344                       # number of overall (read+write) accesses
system.l2cache.overall_accesses::.cpu.data        73443                       # number of overall (read+write) accesses
system.l2cache.overall_accesses::total         114787                       # number of overall (read+write) accesses
system.l2cache.demand_miss_rate::.cpu.inst     0.555945                       # miss rate for demand accesses
system.l2cache.demand_miss_rate::.cpu.data     0.505698                       # miss rate for demand accesses
system.l2cache.demand_miss_rate::total       0.523796                       # miss rate for demand accesses
system.l2cache.overall_miss_rate::.cpu.inst     0.555945                       # miss rate for overall accesses
system.l2cache.overall_miss_rate::.cpu.data     0.505698                       # miss rate for overall accesses
system.l2cache.overall_miss_rate::total      0.523796                       # miss rate for overall accesses
system.l2cache.demand_avg_miss_latency::.cpu.inst 20500.152273                       # average overall miss latency
system.l2cache.demand_avg_miss_latency::.cpu.data 24973.559505                       # average overall miss latency
system.l2cache.demand_avg_miss_latency::total 23263.434511                       # average overall miss latency
system.l2cache.overall_avg_miss_latency::.cpu.inst 20500.152273                       # average overall miss latency
system.l2cache.overall_avg_miss_latency::.cpu.data 24973.559505                       # average overall miss latency
system.l2cache.overall_avg_miss_latency::total 23263.434511                       # average overall miss latency
system.l2cache.blocked_cycles::no_mshrs             0                       # number of cycles access was blocked
system.l2cache.blocked_cycles::no_targets            0                       # number of cycles access was blocked
system.l2cache.blocked::no_mshrs                    0                       # number of cycles access was blocked
system.l2cache.blocked::no_targets                  0                       # number of cycles access was blocked
system.l2cache.avg_blocked_cycles::no_mshrs          nan                       # average number of cycles each access was blocked
system.l2cache.avg_blocked_cycles::no_targets          nan                       # average number of cycles each access was blocked
system.l2cache.writebacks::.writebacks          24418                       # number of writebacks
system.l2cache.writebacks::total                24418                       # number of writebacks
system.l2cache.demand_mshr_misses::.cpu.inst        22985                       # number of demand (read+write) MSHR misses
system.l2cache.demand_mshr_misses::.cpu.data        37140                       # number of demand (read+write) MSHR misses
system.l2cache.demand_mshr_misses::total        60125                       # number of demand (read+write) MSHR misses
system.l2cache.overall_mshr_misses::.cpu.inst        22985                       # number of overall MSHR misses
system.l2cache.overall_mshr_misses::.cpu.data        37140                       # number of overall MSHR misses
system.l2cache.overall_mshr_misses::total        60125                       # number of overall MSHR misses
system.l2cache.demand_mshr_miss_latency::.cpu.inst    425226000                       # number of demand (read+write) MSHR miss cycles
system.l2cache.demand_mshr_miss_latency::.cpu.data    853238000                       # number of demand (read+write) MSHR miss cycles
system.l2cache.demand_mshr_miss_latency::total   1278464000                       # number of demand (read+write) MSHR miss cycles
system.l2cache.overall_mshr_miss_latency::.cpu.inst    425226000                       # number of overall MSHR miss cycles
system.l2cache.overall_mshr_miss_latency::.cpu.data    853238000                       # number of overall MSHR miss cycles
system.l2cache.overall_mshr_miss_latency::total   1278464000                       # number of overall MSHR miss cycles
system.l2cache.demand_mshr_miss_rate::.cpu.inst     0.555945                       # mshr miss rate for demand accesses
system.l2cache.demand_mshr_miss_rate::.cpu.data     0.505698                       # mshr miss rate for demand accesses
system.l2cache.demand_mshr_miss_rate::total     0.523796                       # mshr miss rate for demand accesses
system.l2cache.overall_mshr_miss_rate::.cpu.inst     0.555945                       # mshr miss rate for overall accesses
system.l2cache.overall_mshr_miss_rate::.cpu.data     0.505698                       # mshr miss rate for overall accesses
system.l2cache.overall_mshr_miss_rate::total     0.523796                       # mshr miss rate for overall accesses
system.l2cache.demand_avg_mshr_miss_latency::.cpu.inst 18500.152273                       # average overall mshr miss latency
system.l2cache.demand_avg_mshr_miss_latency::.cpu.data 22973.559505                       # average overall mshr miss latency
system.l2cache.demand_avg_mshr_miss_latency::total 21263.434511                       # average overall mshr miss latency
system.l2cache.overall_avg_mshr_miss_latency::.cpu.inst 18500.152273                       # average overall mshr miss latency
system.l2cache.overall_avg_mshr_miss_latency::.cpu.data 22973.559505                       # average overall mshr miss latency
system.l2cache.overall_avg_mshr_miss_latency::total 21263.434511                       # average overall mshr miss latency
system.l2cache.replacements                     78642                       # number of replacements
system.l2cache.ReadReq_hits::.cpu.inst          18359                       # number of ReadReq hits
system.l2cache.ReadReq_hits::.cpu.data          36303                       # number of ReadReq hits
system.l2cache.ReadReq_hits::total              54662                       # number of ReadReq hits
system.l2cache.ReadReq_misses::.cpu.inst        22985                       # number of ReadReq misses
system.l2cache.ReadReq_misses::.cpu.data        37140                       # number of ReadReq misses
system.l2cache.ReadReq_misses::total            60125                       # number of ReadReq misses
system.l2cache.ReadReq_miss_latency::.cpu.inst    471196000                       # number of ReadReq miss cycles
system.l2cache.ReadReq_miss_latency::.cpu.data    927518000                       # number of ReadReq miss cycles
system.l2cache.ReadReq_miss_latency::total   1398714000                       # number of ReadReq miss cycles
system.l2cache.ReadReq_accesses::.cpu.inst        41344                       # number of ReadReq accesses(hits+misses)
system.l2cache.ReadReq_accesses::.cpu.data        73443                       # number of ReadReq accesses(hits+misses)
system.l2cache.ReadReq_accesses::total         114787                       # number of ReadReq accesses(hits+misses)
system.l2cache.ReadReq_miss_rate::.cpu.inst     0.555945                       # miss rate for ReadReq accesses
system.l2cache.ReadReq_miss_rate::.cpu.data     0.505698                       # miss rate for ReadReq accesses
system.l2cache.ReadReq_miss_rate::total      0.523796                       # miss rate for ReadReq accesses
system.l2cache.ReadReq_avg_miss_latency::.cpu.inst 20500.152273                       # average ReadReq miss latency
system.l2cache.ReadReq_avg_miss_latency::.cpu.data 24973.559505                       # average ReadReq miss latency
system.l2cache.ReadReq_avg_miss_latency::total 23263.434511                       # average ReadReq miss latency
system.l2cache.ReadReq_mshr_misses::.cpu.inst        22985                       # number of ReadReq MSHR misses
system.l2cache.ReadReq_mshr_misses::.cpu.data        37140                       # number of ReadReq MSHR misses
system.l2cache.ReadReq_mshr_misses::total        60125                       # number of ReadReq MSHR misses
system.l2cache.ReadReq_mshr_miss_latency::.cpu.inst    425226000                       # number of ReadReq MSHR miss cycles
system.l2cache.ReadReq_mshr_miss_latency::.cpu.data    853238000                       # number of ReadReq MSHR miss cycles
system.l2cache.ReadReq_mshr_miss_latency::total   1278464000                       # number of ReadReq MSHR miss cycles
system.l2cache.ReadReq_mshr_miss_rate::.cpu.inst     0.555945                       # mshr miss rate for ReadReq accesses
system.l2cache.ReadReq_mshr_miss_rate::.cpu.data     0.505698                       # mshr miss rate for ReadReq accesses
system.l2cache.ReadReq_mshr_miss_rate::total     0.523796                       # mshr miss rate for ReadReq accesses
system.l2cache.ReadReq_avg_mshr_miss_latency::.cpu.inst 18500.152273                       # average ReadReq mshr miss latency
system.l2cache.ReadReq_avg_mshr_miss_latency::.cpu.data 22973.559505                       # average ReadReq mshr miss latency
system.l2cache.ReadReq_avg_mshr_miss_latency::total 21263.434511                       # average ReadReq mshr miss latency
system.l2cache.WritebackDirty_hits::.writebacks        36515                       # number of WritebackDirty hits
system.l2cache.WritebackDirty_hits::total        36515                       # number of WritebackDirty hits
system.l2cache.WritebackDirty_accesses::.writebacks        36515                       # number of WritebackDirty accesses(hits+misses)
system.l2cache.WritebackDirty_accesses::total        36515                       # number of WritebackDirty accesses(hits+misses)
system.l2cache.power_state.pwrStateResidencyTicks::UNDEFINED  25263671000                       # Cumulative time (in ticks) in various power states
system.l2cache.tags.tagsinuse              509.252223                       # Cycle average of tags in use
system.l2cache.tags.total_refs                 151302                       # Total number of references to valid blocks.
system.l2cache.tags.sampled_refs                79154                       # Sample count of references to valid blocks.
system.l2cache.tags.avg_refs                 1.911489                       # Average number of references to valid blocks.
system.l2cache.tags.warmup_cycle                78000                       # Cycle when the warmup percentage was hit.
system.l2cache.tags.occ_blocks::.writebacks    89.564375                       # Average occupied blocks per requestor
system.l2cache.tags.occ_blocks::.cpu.inst   105.648085                       # Average occupied blocks per requestor
system.l2cache.tags.occ_blocks::.cpu.data   314.039763                       # Average occupied blocks per requestor
system.l2cache.tags.occ_percent::.writebacks     0.174930                       # Average percentage of cache occupancy
system.l2cache.tags.occ_percent::.cpu.inst     0.206344                       # Average percentage of cache occupancy
system.l2cache.tags.occ_percent::.cpu.data     0.613359                       # Average percentage of cache occupancy
system.l2cache.tags.occ_percent::total       0.994633                       # Average percentage of cache occupancy
system.l2cache.tags.occ_task_id_blocks::1024          512                       # Occupied blocks per task id
system.l2cache.tags.age_task_id_blocks_1024::0            1                       # Occupied blocks per task id
system.l2cache.tags.age_task_id_blocks_1024::1           58                       # Occupied blocks per task id
system.l2cache.tags.age_task_id_blocks_1024::2          138                       # Occupied blocks per task id
system.l2cache.tags.age_task_id_blocks_1024::3          315                       # Occupied blocks per task id
system.l2cache.tags.occ_task_id_percent::1024            1                       # Percentage of cache occupancy per task id
system.l2cache.tags.tag_accesses               230456                       # Number of tag accesses
system.l2cache.tags.data_accesses              230456                       # Number of data accesses
system.l2cache.tags.power_state.pwrStateResidencyTicks::UNDEFINED  25263671000                       # Cumulative time (in ticks) in various power states
system.l2bar.trans_dist::ReadReq               114787                       # Transaction distribution
system.l2bar.trans_dist::ReadResp              114787                       # Transaction distribution
system.l2bar.trans_dist::WritebackDirty         36515                       # Transaction distribution
system.l2bar.pkt_count_system.dcache.mem_side::system.l2cache.cpu_side       183401                       # Packet count per connected master and slave (bytes)
system.l2bar.pkt_count_system.icache.mem_side::system.l2cache.cpu_side        82688                       # Packet count per connected master and slave (bytes)
system.l2bar.pkt_count::total                  266089                       # Packet count per connected master and slave (bytes)
system.l2bar.pkt_size_system.dcache.mem_side::system.l2cache.cpu_side      7037312                       # Cumulative packet size per connected master and slave (bytes)
system.l2bar.pkt_size_system.icache.mem_side::system.l2cache.cpu_side      2646016                       # Cumulative packet size per connected master and slave (bytes)
system.l2bar.pkt_size::total                  9683328                       # Cumulative packet size per connected master and slave (bytes)
system.l2bar.respLayer1.occupancy           206720000                       # Layer occupancy (ticks)
system.l2bar.respLayer1.utilization               0.8                       # Layer utilization (%)
system.l2bar.reqLayer0.occupancy            297362000                       # Layer occupancy (ticks)
system.l2bar.reqLayer0.utilization                1.2                       # Layer utilization (%)
system.l2bar.respLayer0.occupancy           367215000                       # Layer occupancy (ticks)
system.l2bar.respLayer0.utilization               1.5                       # Layer utilization (%)
system.l2bar.power_state.pwrStateResidencyTicks::UNDEFINED  25263671000                       # Cumulative time (in ticks) in various power states
system.cpu.dtb.walker.power_state.pwrStateResidencyTicks::UNDEFINED  25263671000                       # Cumulative time (in ticks) in various power states
system.cpu.interrupts.clk_domain.clock          16000                       # Clock period in ticks
system.cpu.itb.walker.power_state.pwrStateResidencyTicks::UNDEFINED  25263671000                       # Cumulative time (in ticks) in various power states
system.cpu.power_state.numTransitions               1                       # Number of power state transitions
system.cpu.power_state.pwrStateResidencyTicks::ON  25263671000                       # Cumulative time (in ticks) in various power states

---------- End Simulation Statistics   ----------
