
---------- Begin Simulation Statistics ----------
final_tick                               401072249000                       # Number of ticks from beginning of simulation (restored from checkpoints and never reset)
host_inst_rate                                 199981                       # Simulator instruction rate (inst/s)
host_mem_usage                                 735056                       # Number of bytes of host memory used
host_op_rate                                   383282                       # Simulator op (including micro ops) rate (op/s)
host_seconds                                    25.00                       # Real time elapsed on the host
host_tick_rate                            16041316225                       # Simulator tick rate (ticks/s)
sim_freq                                 1000000000000                       # Frequency of simulated ticks
sim_insts                                     5000000                       # Number of instructions simulated
sim_ops                                       9582978                       # Number of ops (including micro ops) simulated
sim_seconds                                  0.401072                       # Number of seconds simulated
sim_ticks                                401072249000                       # Number of ticks simulated
system.cachebus.snoop_filter.hit_multi_requests            0                       # Number of requests hitting in the snoop filter with multiple (>1) holders of the requested data.
system.cachebus.snoop_filter.hit_multi_snoops            0                       # Number of snoops hitting in the snoop filter with multiple (>1) holders of the requested data.
system.cachebus.snoop_filter.hit_single_requests            0                       # Number of requests hitting in the snoop filter with a single holder of the requested data.
system.cachebus.snoop_filter.hit_single_snoops            0                       # Number of snoops hitting in the snoop filter with a single holder of the requested data.
system.cachebus.snoop_filter.tot_requests            0                       # Total number of requests made to the snoop filter.
system.cachebus.snoop_filter.tot_snoops             0                       # Total number of snoops made to the snoop filter.
system.cpu.Branches                           1122531                       # Number of branches fetched
system.cpu.committedInsts                     5000000                       # Number of instructions committed
system.cpu.committedOps                       9582978                       # Number of ops (including micro ops) committed
system.cpu.dtb.rdAccesses                     1198833                       # TLB accesses on read requests
system.cpu.dtb.rdMisses                           387                       # TLB misses on read requests
system.cpu.dtb.wrAccesses                      784893                       # TLB accesses on write requests
system.cpu.dtb.wrMisses                           220                       # TLB misses on write requests
system.cpu.idle_fraction                            0                       # Percentage of idle cycles
system.cpu.itb.rdAccesses                           0                       # TLB accesses on read requests
system.cpu.itb.rdMisses                             0                       # TLB misses on read requests
system.cpu.itb.wrAccesses                     6633581                       # TLB accesses on write requests
system.cpu.itb.wrMisses                           330                       # TLB misses on write requests
system.cpu.not_idle_fraction                        1                       # Percentage of non-idle cycles
system.cpu.numCycles                        401072249                       # number of cpu cycles simulated
system.cpu.numWorkItemsCompleted                    0                       # number of work items this cpu completed
system.cpu.numWorkItemsStarted                      0                       # number of work items this cpu started
system.cpu.num_busy_cycles                  401072249                       # Number of busy cycles
system.cpu.num_cc_register_reads              5236984                       # number of times the CC registers were read
system.cpu.num_cc_register_writes             3059706                       # number of times the CC registers were written
system.cpu.num_conditional_control_insts       829351                       # number of instructions that are conditional controls
system.cpu.num_fp_alu_accesses                 318682                       # Number of float alu accesses
system.cpu.num_fp_insts                        318682                       # number of float instructions
system.cpu.num_fp_register_reads               577317                       # number of times the floating registers were read
system.cpu.num_fp_register_writes              273831                       # number of times the floating registers were written
system.cpu.num_func_calls                      184948                       # number of times a function call or return occured
system.cpu.num_idle_cycles                          0                       # Number of idle cycles
system.cpu.num_int_alu_accesses               9314273                       # Number of integer alu accesses
system.cpu.num_int_insts                      9314273                       # number of integer instructions
system.cpu.num_int_register_reads            17903283                       # number of times the integer registers were read
system.cpu.num_int_register_writes            7402192                       # number of times the integer registers were written
system.cpu.num_load_insts                     1198498                       # Number of load instructions
system.cpu.num_mem_refs                       1983375                       # number of memory refs
system.cpu.num_store_insts                     784877                       # Number of store instructions
system.cpu.num_vec_alu_accesses                     0                       # Number of vector alu accesses
system.cpu.num_vec_insts                            0                       # number of vector instructions
system.cpu.num_vec_register_reads                   0                       # number of times the vector registers were read
system.cpu.num_vec_register_writes                  0                       # number of times the vector registers were written
system.cpu.op_class::No_OpClass                 41721      0.44%      0.44% # Class of executed instruction
system.cpu.op_class::IntAlu                   7333500     76.52%     76.96% # Class of executed instruction
system.cpu.op_class::IntMult                    19041      0.20%     77.16% # Class of executed instruction
system.cpu.op_class::IntDiv                      1584      0.02%     77.18% # Class of executed instruction
system.cpu.op_class::FloatAdd                   12960      0.14%     77.31% # Class of executed instruction
system.cpu.op_class::FloatCmp                       0      0.00%     77.31% # Class of executed instruction
system.cpu.op_class::FloatCvt                       0      0.00%     77.31% # Class of executed instruction
system.cpu.op_class::FloatMult                      0      0.00%     77.31% # Class of executed instruction
system.cpu.op_class::FloatMultAcc                   0      0.00%     77.31% # Class of executed instruction
system.cpu.op_class::FloatDiv                       0      0.00%     77.31% # Class of executed instruction
system.cpu.op_class::FloatMisc                      0      0.00%     77.31% # Class of executed instruction
system.cpu.op_class::FloatSqrt                      0      0.00%     77.31% # Class of executed instruction
system.cpu.op_class::SimdAdd                     2962      0.03%     77.34% # Class of executed instruction
system.cpu.op_class::SimdAddAcc                     0      0.00%     77.34% # Class of executed instruction
system.cpu.op_class::SimdAlu                    25710      0.27%     77.61% # Class of executed instruction
system.cpu.op_class::SimdCmp                      618      0.01%     77.62% # Class of executed instruction
system.cpu.op_class::SimdCvt                    12850      0.13%     77.75% # Class of executed instruction
system.cpu.op_class::SimdMisc                   30260      0.32%     78.07% # Class of executed instruction
system.cpu.op_class::SimdMult                       0      0.00%     78.07% # Class of executed instruction
system.cpu.op_class::SimdMultAcc                    0      0.00%     78.07% # Class of executed instruction
system.cpu.op_class::SimdShift                    554      0.01%     78.07% # Class of executed instruction
system.cpu.op_class::SimdShiftAcc                   0      0.00%     78.07% # Class of executed instruction
system.cpu.op_class::SimdDiv                        0      0.00%     78.07% # Class of executed instruction
system.cpu.op_class::SimdSqrt                       0      0.00%     78.07% # Class of executed instruction
system.cpu.op_class::SimdFloatAdd               35976      0.38%     78.45% # Class of executed instruction
system.cpu.op_class::SimdFloatAlu                   0      0.00%     78.45% # Class of executed instruction
system.cpu.op_class::SimdFloatCmp                 694      0.01%     78.45% # Class of executed instruction
system.cpu.op_class::SimdFloatCvt               24830      0.26%     78.71% # Class of executed instruction
system.cpu.op_class::SimdFloatDiv                3158      0.03%     78.75% # Class of executed instruction
system.cpu.op_class::SimdFloatMisc                  0      0.00%     78.75% # Class of executed instruction
system.cpu.op_class::SimdFloatMult              51305      0.54%     79.28% # Class of executed instruction
system.cpu.op_class::SimdFloatMultAcc               0      0.00%     79.28% # Class of executed instruction
system.cpu.op_class::SimdFloatSqrt               2108      0.02%     79.30% # Class of executed instruction
system.cpu.op_class::SimdReduceAdd                  0      0.00%     79.30% # Class of executed instruction
system.cpu.op_class::SimdReduceAlu                  0      0.00%     79.30% # Class of executed instruction
system.cpu.op_class::SimdReduceCmp                  0      0.00%     79.30% # Class of executed instruction
system.cpu.op_class::SimdFloatReduceAdd             0      0.00%     79.30% # Class of executed instruction
system.cpu.op_class::SimdFloatReduceCmp             0      0.00%     79.30% # Class of executed instruction
system.cpu.op_class::SimdAes                        0      0.00%     79.30% # Class of executed instruction
system.cpu.op_class::SimdAesMix                     0      0.00%     79.30% # Class of executed instruction
system.cpu.op_class::SimdSha1Hash                   0      0.00%     79.30% # Class of executed instruction
system.cpu.op_class::SimdSha1Hash2                  0      0.00%     79.30% # Class of executed instruction
system.cpu.op_class::SimdSha256Hash                 0      0.00%     79.30% # Class of executed instruction
system.cpu.op_class::SimdSha256Hash2                0      0.00%     79.30% # Class of executed instruction
system.cpu.op_class::SimdShaSigma2                  0      0.00%     79.30% # Class of executed instruction
system.cpu.op_class::SimdShaSigma3                  0      0.00%     79.30% # Class of executed instruction
system.cpu.op_class::SimdPredAlu                    0      0.00%     79.30% # Class of executed instruction
system.cpu.op_class::MemRead                  1151003     12.01%     91.31% # Class of executed instruction
system.cpu.op_class::MemWrite                  764480      7.98%     99.29% # Class of executed instruction
system.cpu.op_class::FloatMemRead               47495      0.50%     99.79% # Class of executed instruction
system.cpu.op_class::FloatMemWrite              20397      0.21%    100.00% # Class of executed instruction
system.cpu.op_class::IprAccess                      0      0.00%    100.00% # Class of executed instruction
system.cpu.op_class::InstPrefetch                   0      0.00%    100.00% # Class of executed instruction
system.cpu.op_class::total                    9583206                       # Class of executed instruction
system.cpu.workload.numSyscalls                    87                       # Number of system calls
system.membus.snoop_filter.hit_multi_requests            0                       # Number of requests hitting in the snoop filter with multiple (>1) holders of the requested data.
system.membus.snoop_filter.hit_multi_snoops            0                       # Number of snoops hitting in the snoop filter with multiple (>1) holders of the requested data.
system.membus.snoop_filter.hit_single_requests            0                       # Number of requests hitting in the snoop filter with a single holder of the requested data.
system.membus.snoop_filter.hit_single_snoops            0                       # Number of snoops hitting in the snoop filter with a single holder of the requested data.
system.membus.snoop_filter.tot_requests          3313                       # Total number of requests made to the snoop filter.
system.membus.snoop_filter.tot_snoops               0                       # Total number of snoops made to the snoop filter.
system.membus.trans_dist::ReadReq             7424734                       # Transaction distribution
system.membus.trans_dist::ReadResp            7425967                       # Transaction distribution
system.membus.trans_dist::WriteReq             550429                       # Transaction distribution
system.membus.trans_dist::WriteResp            550429                       # Transaction distribution
system.membus.trans_dist::SoftPFReq              9833                       # Transaction distribution
system.membus.trans_dist::SoftPFResp             9833                       # Transaction distribution
system.membus.trans_dist::ReadExReq              2080                       # Transaction distribution
system.membus.trans_dist::ReadExResp             2080                       # Transaction distribution
system.membus.trans_dist::ReadSharedReq          1233                       # Transaction distribution
system.membus.pkt_count_system.cpu.icache_port::system.mem_ctrl.port     13267162                       # Packet count per connected master and slave (bytes)
system.membus.pkt_count_system.cpu.icache_port::total     13267162                       # Packet count per connected master and slave (bytes)
system.membus.pkt_count_system.memobj.mem_side::system.mem_ctrl.port      2702830                       # Packet count per connected master and slave (bytes)
system.membus.pkt_count_system.memobj.mem_side::total      2702830                       # Packet count per connected master and slave (bytes)
system.membus.pkt_count_system.cache.mem_side::system.mem_ctrl.port         6626                       # Packet count per connected master and slave (bytes)
system.membus.pkt_count_system.cache.mem_side::total         6626                       # Packet count per connected master and slave (bytes)
system.membus.pkt_count::total               15976618                       # Packet count per connected master and slave (bytes)
system.membus.pkt_size_system.cpu.icache_port::system.mem_ctrl.port     53068648                       # Cumulative packet size per connected master and slave (bytes)
system.membus.pkt_size_system.cpu.icache_port::total     53068648                       # Cumulative packet size per connected master and slave (bytes)
system.membus.pkt_size_system.memobj.mem_side::system.mem_ctrl.port      8950854                       # Cumulative packet size per connected master and slave (bytes)
system.membus.pkt_size_system.memobj.mem_side::total      8950854                       # Cumulative packet size per connected master and slave (bytes)
system.membus.pkt_size_system.cache.mem_side::system.mem_ctrl.port       212032                       # Cumulative packet size per connected master and slave (bytes)
system.membus.pkt_size_system.cache.mem_side::total       212032                       # Cumulative packet size per connected master and slave (bytes)
system.membus.pkt_size::total                62231534                       # Cumulative packet size per connected master and slave (bytes)
system.membus.snoops                                0                       # Total snoops (count)
system.membus.snoopTraffic                          0                       # Total snoop traffic (bytes)
system.membus.snoop_fanout::samples           7988309                       # Request fanout histogram
system.membus.snoop_fanout::mean                    0                       # Request fanout histogram
system.membus.snoop_fanout::stdev                   0                       # Request fanout histogram
system.membus.snoop_fanout::underflows              0      0.00%      0.00% # Request fanout histogram
system.membus.snoop_fanout::0                 7988309    100.00%    100.00% # Request fanout histogram
system.membus.snoop_fanout::1                       0      0.00%    100.00% # Request fanout histogram
system.membus.snoop_fanout::overflows               0      0.00%    100.00% # Request fanout histogram
system.membus.snoop_fanout::min_value               0                       # Request fanout histogram
system.membus.snoop_fanout::max_value               0                       # Request fanout histogram
system.membus.snoop_fanout::total             7988309                       # Request fanout histogram
system.membus.reqLayer2.occupancy          8538738000                       # Layer occupancy (ticks)
system.membus.reqLayer2.utilization               2.1                       # Layer utilization (%)
system.membus.respLayer1.occupancy         2400666750                       # Layer occupancy (ticks)
system.membus.respLayer1.utilization              0.6                       # Layer utilization (%)
system.membus.respLayer0.occupancy        15066312000                       # Layer occupancy (ticks)
system.membus.respLayer0.utilization              3.8                       # Layer utilization (%)
system.membus.respLayer2.occupancy           17650750                       # Layer occupancy (ticks)
system.membus.respLayer2.utilization              0.0                       # Layer utilization (%)
system.membus.power_state.pwrStateResidencyTicks::UNDEFINED 401072249000                       # Cumulative time (in ticks) in various power states
system.mem_ctrl.bytes_read::.cpu.inst        53068648                       # Number of bytes read from this memory
system.mem_ctrl.bytes_read::.cpu.data         5404069                       # Number of bytes read from this memory
system.mem_ctrl.bytes_read::total            58472717                       # Number of bytes read from this memory
system.mem_ctrl.bytes_inst_read::.cpu.inst     53068648                       # Number of instructions bytes read from this memory
system.mem_ctrl.bytes_inst_read::total       53068648                       # Number of instructions bytes read from this memory
system.mem_ctrl.bytes_written::.cpu.data      3758817                       # Number of bytes written to this memory
system.mem_ctrl.bytes_written::total          3758817                       # Number of bytes written to this memory
system.mem_ctrl.num_reads::.cpu.inst          6633581                       # Number of read requests responded to by this memory
system.mem_ctrl.num_reads::.cpu.data           804299                       # Number of read requests responded to by this memory
system.mem_ctrl.num_reads::total              7437880                       # Number of read requests responded to by this memory
system.mem_ctrl.num_writes::.cpu.data          550429                       # Number of write requests responded to by this memory
system.mem_ctrl.num_writes::total              550429                       # Number of write requests responded to by this memory
system.mem_ctrl.bw_read::.cpu.inst          132316928                       # Total read bandwidth from this memory (bytes/s)
system.mem_ctrl.bw_read::.cpu.data           13474054                       # Total read bandwidth from this memory (bytes/s)
system.mem_ctrl.bw_read::total              145790982                       # Total read bandwidth from this memory (bytes/s)
system.mem_ctrl.bw_inst_read::.cpu.inst     132316928                       # Instruction read bandwidth from this memory (bytes/s)
system.mem_ctrl.bw_inst_read::total         132316928                       # Instruction read bandwidth from this memory (bytes/s)
system.mem_ctrl.bw_write::.cpu.data           9371920                       # Write bandwidth from this memory (bytes/s)
system.mem_ctrl.bw_write::total               9371920                       # Write bandwidth from this memory (bytes/s)
system.mem_ctrl.bw_total::.cpu.inst         132316928                       # Total bandwidth to/from this memory (bytes/s)
system.mem_ctrl.bw_total::.cpu.data          22845974                       # Total bandwidth to/from this memory (bytes/s)
system.mem_ctrl.bw_total::total             155162902                       # Total bandwidth to/from this memory (bytes/s)
system.mem_ctrl.avgPriority_.cpu.inst::samples   6633581.00                       # Average QoS priority value for accepted requests
system.mem_ctrl.avgPriority_.cpu.data::samples    754728.00                       # Average QoS priority value for accepted requests
system.mem_ctrl.priorityMinLatency       0.000000018750                       # per QoS priority minimum request to response latency (s)
system.mem_ctrl.priorityMaxLatency       0.017419494500                       # per QoS priority maximum request to response latency (s)
system.mem_ctrl.numReadWriteTurnArounds          2880                       # Number of turnarounds from READ to WRITE
system.mem_ctrl.numWriteReadTurnArounds          2880                       # Number of turnarounds from WRITE to READ
system.mem_ctrl.numStayReadState             15334845                       # Number of times bus staying in READ state
system.mem_ctrl.numStayWriteState               43268                       # Number of times bus staying in WRITE state
system.mem_ctrl.readReqs                      7437880                       # Number of read requests accepted
system.mem_ctrl.writeReqs                      550429                       # Number of write requests accepted
system.mem_ctrl.readBursts                    7437880                       # Number of DRAM read bursts, including those serviced by the write queue
system.mem_ctrl.writeBursts                    550429                       # Number of DRAM write bursts, including those merged in the write queue
system.mem_ctrl.servicedByWrQ                   95705                       # Number of DRAM read bursts serviced by the write queue
system.mem_ctrl.mergedWrBursts                 504295                       # Number of DRAM write bursts merged with an existing one
system.mem_ctrl.neitherReadNorWriteReqs             0                       # Number of requests that are neither read nor write
system.mem_ctrl.perBankRdBursts::0             792110                       # Per bank write bursts
system.mem_ctrl.perBankRdBursts::1             152789                       # Per bank write bursts
system.mem_ctrl.perBankRdBursts::2             254792                       # Per bank write bursts
system.mem_ctrl.perBankRdBursts::3             233936                       # Per bank write bursts
system.mem_ctrl.perBankRdBursts::4            1123625                       # Per bank write bursts
system.mem_ctrl.perBankRdBursts::5             280293                       # Per bank write bursts
system.mem_ctrl.perBankRdBursts::6            1558963                       # Per bank write bursts
system.mem_ctrl.perBankRdBursts::7             397545                       # Per bank write bursts
system.mem_ctrl.perBankRdBursts::8             508993                       # Per bank write bursts
system.mem_ctrl.perBankRdBursts::9             307750                       # Per bank write bursts
system.mem_ctrl.perBankRdBursts::10             87294                       # Per bank write bursts
system.mem_ctrl.perBankRdBursts::11            153787                       # Per bank write bursts
system.mem_ctrl.perBankRdBursts::12            586280                       # Per bank write bursts
system.mem_ctrl.perBankRdBursts::13            249982                       # Per bank write bursts
system.mem_ctrl.perBankRdBursts::14            200163                       # Per bank write bursts
system.mem_ctrl.perBankRdBursts::15            453873                       # Per bank write bursts
system.mem_ctrl.perBankWrBursts::0               1302                       # Per bank write bursts
system.mem_ctrl.perBankWrBursts::1               1637                       # Per bank write bursts
system.mem_ctrl.perBankWrBursts::2               5744                       # Per bank write bursts
system.mem_ctrl.perBankWrBursts::3               4318                       # Per bank write bursts
system.mem_ctrl.perBankWrBursts::4               8760                       # Per bank write bursts
system.mem_ctrl.perBankWrBursts::5               8677                       # Per bank write bursts
system.mem_ctrl.perBankWrBursts::6                174                       # Per bank write bursts
system.mem_ctrl.perBankWrBursts::7                890                       # Per bank write bursts
system.mem_ctrl.perBankWrBursts::8               3549                       # Per bank write bursts
system.mem_ctrl.perBankWrBursts::9                355                       # Per bank write bursts
system.mem_ctrl.perBankWrBursts::10               476                       # Per bank write bursts
system.mem_ctrl.perBankWrBursts::11              5807                       # Per bank write bursts
system.mem_ctrl.perBankWrBursts::12              2341                       # Per bank write bursts
system.mem_ctrl.perBankWrBursts::13               612                       # Per bank write bursts
system.mem_ctrl.perBankWrBursts::14               376                       # Per bank write bursts
system.mem_ctrl.perBankWrBursts::15              1089                       # Per bank write bursts
system.mem_ctrl.avgRdQLen                        1.00                       # Average read queue length when enqueuing
system.mem_ctrl.avgWrQLen                       26.47                       # Average write queue length when enqueuing
system.mem_ctrl.totQLat                   25127386250                       # Total ticks spent queuing
system.mem_ctrl.totBusLat                 36710875000                       # Total ticks spent in databus transfers
system.mem_ctrl.totMemAccLat             162793167500                       # Total ticks spent from burst creation until serviced by the DRAM
system.mem_ctrl.avgQLat                       3422.34                       # Average queueing delay per DRAM burst
system.mem_ctrl.avgBusLat                     5000.00                       # Average bus latency per DRAM burst
system.mem_ctrl.avgMemAccLat                 22172.34                       # Average memory access latency per DRAM burst
system.mem_ctrl.numRdRetry                          0                       # Number of times read queue was full causing retry
system.mem_ctrl.numWrRetry                          0                       # Number of times write queue was full causing retry
system.mem_ctrl.readRowHits                   6613940                       # Number of row buffer hits during reads
system.mem_ctrl.writeRowHits                    41072                       # Number of row buffer hits during writes
system.mem_ctrl.readRowHitRate                  90.08                       # Row buffer hit rate for reads
system.mem_ctrl.writeRowHitRate                 89.03                       # Row buffer hit rate for writes
system.mem_ctrl.readPktSize::0                  82909                       # Read request sizes (log2)
system.mem_ctrl.readPktSize::1                  15086                       # Read request sizes (log2)
system.mem_ctrl.readPktSize::2                 136228                       # Read request sizes (log2)
system.mem_ctrl.readPktSize::3                7200344                       # Read request sizes (log2)
system.mem_ctrl.readPktSize::4                      0                       # Read request sizes (log2)
system.mem_ctrl.readPktSize::5                      0                       # Read request sizes (log2)
system.mem_ctrl.readPktSize::6                   3313                       # Read request sizes (log2)
system.mem_ctrl.writePktSize::0                 29241                       # Write request sizes (log2)
system.mem_ctrl.writePktSize::1                 14299                       # Write request sizes (log2)
system.mem_ctrl.writePktSize::2                 88526                       # Write request sizes (log2)
system.mem_ctrl.writePktSize::3                418363                       # Write request sizes (log2)
system.mem_ctrl.writePktSize::4                     0                       # Write request sizes (log2)
system.mem_ctrl.writePktSize::5                     0                       # Write request sizes (log2)
system.mem_ctrl.writePktSize::6                     0                       # Write request sizes (log2)
system.mem_ctrl.rdQLenPdf::0                  7341384                       # What read queue length does an incoming req see
system.mem_ctrl.rdQLenPdf::1                      791                       # What read queue length does an incoming req see
system.mem_ctrl.rdQLenPdf::2                        0                       # What read queue length does an incoming req see
system.mem_ctrl.rdQLenPdf::3                        0                       # What read queue length does an incoming req see
system.mem_ctrl.rdQLenPdf::4                        0                       # What read queue length does an incoming req see
system.mem_ctrl.rdQLenPdf::5                        0                       # What read queue length does an incoming req see
system.mem_ctrl.rdQLenPdf::6                        0                       # What read queue length does an incoming req see
system.mem_ctrl.rdQLenPdf::7                        0                       # What read queue length does an incoming req see
system.mem_ctrl.rdQLenPdf::8                        0                       # What read queue length does an incoming req see
system.mem_ctrl.rdQLenPdf::9                        0                       # What read queue length does an incoming req see
system.mem_ctrl.rdQLenPdf::10                       0                       # What read queue length does an incoming req see
system.mem_ctrl.rdQLenPdf::11                       0                       # What read queue length does an incoming req see
system.mem_ctrl.rdQLenPdf::12                       0                       # What read queue length does an incoming req see
system.mem_ctrl.rdQLenPdf::13                       0                       # What read queue length does an incoming req see
system.mem_ctrl.rdQLenPdf::14                       0                       # What read queue length does an incoming req see
system.mem_ctrl.rdQLenPdf::15                       0                       # What read queue length does an incoming req see
system.mem_ctrl.rdQLenPdf::16                       0                       # What read queue length does an incoming req see
system.mem_ctrl.rdQLenPdf::17                       0                       # What read queue length does an incoming req see
system.mem_ctrl.rdQLenPdf::18                       0                       # What read queue length does an incoming req see
system.mem_ctrl.rdQLenPdf::19                       0                       # What read queue length does an incoming req see
system.mem_ctrl.rdQLenPdf::20                       0                       # What read queue length does an incoming req see
system.mem_ctrl.rdQLenPdf::21                       0                       # What read queue length does an incoming req see
system.mem_ctrl.rdQLenPdf::22                       0                       # What read queue length does an incoming req see
system.mem_ctrl.rdQLenPdf::23                       0                       # What read queue length does an incoming req see
system.mem_ctrl.rdQLenPdf::24                       0                       # What read queue length does an incoming req see
system.mem_ctrl.rdQLenPdf::25                       0                       # What read queue length does an incoming req see
system.mem_ctrl.rdQLenPdf::26                       0                       # What read queue length does an incoming req see
system.mem_ctrl.rdQLenPdf::27                       0                       # What read queue length does an incoming req see
system.mem_ctrl.rdQLenPdf::28                       0                       # What read queue length does an incoming req see
system.mem_ctrl.rdQLenPdf::29                       0                       # What read queue length does an incoming req see
system.mem_ctrl.rdQLenPdf::30                       0                       # What read queue length does an incoming req see
system.mem_ctrl.rdQLenPdf::31                       0                       # What read queue length does an incoming req see
system.mem_ctrl.wrQLenPdf::0                        1                       # What write queue length does an incoming req see
system.mem_ctrl.wrQLenPdf::1                        1                       # What write queue length does an incoming req see
system.mem_ctrl.wrQLenPdf::2                        1                       # What write queue length does an incoming req see
system.mem_ctrl.wrQLenPdf::3                        1                       # What write queue length does an incoming req see
system.mem_ctrl.wrQLenPdf::4                        1                       # What write queue length does an incoming req see
system.mem_ctrl.wrQLenPdf::5                        1                       # What write queue length does an incoming req see
system.mem_ctrl.wrQLenPdf::6                        1                       # What write queue length does an incoming req see
system.mem_ctrl.wrQLenPdf::7                        1                       # What write queue length does an incoming req see
system.mem_ctrl.wrQLenPdf::8                        1                       # What write queue length does an incoming req see
system.mem_ctrl.wrQLenPdf::9                        1                       # What write queue length does an incoming req see
system.mem_ctrl.wrQLenPdf::10                       1                       # What write queue length does an incoming req see
system.mem_ctrl.wrQLenPdf::11                       1                       # What write queue length does an incoming req see
system.mem_ctrl.wrQLenPdf::12                       1                       # What write queue length does an incoming req see
system.mem_ctrl.wrQLenPdf::13                       1                       # What write queue length does an incoming req see
system.mem_ctrl.wrQLenPdf::14                       1                       # What write queue length does an incoming req see
system.mem_ctrl.wrQLenPdf::15                      14                       # What write queue length does an incoming req see
system.mem_ctrl.wrQLenPdf::16                      14                       # What write queue length does an incoming req see
system.mem_ctrl.wrQLenPdf::17                    2881                       # What write queue length does an incoming req see
system.mem_ctrl.wrQLenPdf::18                    2882                       # What write queue length does an incoming req see
system.mem_ctrl.wrQLenPdf::19                    2881                       # What write queue length does an incoming req see
system.mem_ctrl.wrQLenPdf::20                    2881                       # What write queue length does an incoming req see
system.mem_ctrl.wrQLenPdf::21                    2881                       # What write queue length does an incoming req see
system.mem_ctrl.wrQLenPdf::22                    2881                       # What write queue length does an incoming req see
system.mem_ctrl.wrQLenPdf::23                    2881                       # What write queue length does an incoming req see
system.mem_ctrl.wrQLenPdf::24                    2881                       # What write queue length does an incoming req see
system.mem_ctrl.wrQLenPdf::25                    2881                       # What write queue length does an incoming req see
system.mem_ctrl.wrQLenPdf::26                    2881                       # What write queue length does an incoming req see
system.mem_ctrl.wrQLenPdf::27                    2880                       # What write queue length does an incoming req see
system.mem_ctrl.wrQLenPdf::28                    2880                       # What write queue length does an incoming req see
system.mem_ctrl.wrQLenPdf::29                    2880                       # What write queue length does an incoming req see
system.mem_ctrl.wrQLenPdf::30                    2880                       # What write queue length does an incoming req see
system.mem_ctrl.wrQLenPdf::31                    2880                       # What write queue length does an incoming req see
system.mem_ctrl.wrQLenPdf::32                    2880                       # What write queue length does an incoming req see
system.mem_ctrl.wrQLenPdf::33                       0                       # What write queue length does an incoming req see
system.mem_ctrl.wrQLenPdf::34                       0                       # What write queue length does an incoming req see
system.mem_ctrl.wrQLenPdf::35                       0                       # What write queue length does an incoming req see
system.mem_ctrl.wrQLenPdf::36                       0                       # What write queue length does an incoming req see
system.mem_ctrl.wrQLenPdf::37                       0                       # What write queue length does an incoming req see
system.mem_ctrl.wrQLenPdf::38                       0                       # What write queue length does an incoming req see
system.mem_ctrl.wrQLenPdf::39                       0                       # What write queue length does an incoming req see
system.mem_ctrl.wrQLenPdf::40                       0                       # What write queue length does an incoming req see
system.mem_ctrl.wrQLenPdf::41                       0                       # What write queue length does an incoming req see
system.mem_ctrl.wrQLenPdf::42                       0                       # What write queue length does an incoming req see
system.mem_ctrl.wrQLenPdf::43                       0                       # What write queue length does an incoming req see
system.mem_ctrl.wrQLenPdf::44                       0                       # What write queue length does an incoming req see
system.mem_ctrl.wrQLenPdf::45                       0                       # What write queue length does an incoming req see
system.mem_ctrl.wrQLenPdf::46                       0                       # What write queue length does an incoming req see
system.mem_ctrl.wrQLenPdf::47                       0                       # What write queue length does an incoming req see
system.mem_ctrl.wrQLenPdf::48                       0                       # What write queue length does an incoming req see
system.mem_ctrl.wrQLenPdf::49                       0                       # What write queue length does an incoming req see
system.mem_ctrl.wrQLenPdf::50                       0                       # What write queue length does an incoming req see
system.mem_ctrl.wrQLenPdf::51                       0                       # What write queue length does an incoming req see
system.mem_ctrl.wrQLenPdf::52                       0                       # What write queue length does an incoming req see
system.mem_ctrl.wrQLenPdf::53                       0                       # What write queue length does an incoming req see
system.mem_ctrl.wrQLenPdf::54                       0                       # What write queue length does an incoming req see
system.mem_ctrl.wrQLenPdf::55                       0                       # What write queue length does an incoming req see
system.mem_ctrl.wrQLenPdf::56                       0                       # What write queue length does an incoming req see
system.mem_ctrl.wrQLenPdf::57                       0                       # What write queue length does an incoming req see
system.mem_ctrl.wrQLenPdf::58                       0                       # What write queue length does an incoming req see
system.mem_ctrl.wrQLenPdf::59                       0                       # What write queue length does an incoming req see
system.mem_ctrl.wrQLenPdf::60                       0                       # What write queue length does an incoming req see
system.mem_ctrl.wrQLenPdf::61                       0                       # What write queue length does an incoming req see
system.mem_ctrl.wrQLenPdf::62                       0                       # What write queue length does an incoming req see
system.mem_ctrl.wrQLenPdf::63                       0                       # What write queue length does an incoming req see
system.mem_ctrl.bytesPerActivate::samples       733269                       # Bytes accessed per row activation
system.mem_ctrl.bytesPerActivate::mean     644.851131                       # Bytes accessed per row activation
system.mem_ctrl.bytesPerActivate::gmean    433.576475                       # Bytes accessed per row activation
system.mem_ctrl.bytesPerActivate::stdev    407.260685                       # Bytes accessed per row activation
system.mem_ctrl.bytesPerActivate::0-127        122276     16.68%     16.68% # Bytes accessed per row activation
system.mem_ctrl.bytesPerActivate::128-255        86195     11.75%     28.43% # Bytes accessed per row activation
system.mem_ctrl.bytesPerActivate::256-383        42530      5.80%     34.23% # Bytes accessed per row activation
system.mem_ctrl.bytesPerActivate::384-511        37890      5.17%     39.40% # Bytes accessed per row activation
system.mem_ctrl.bytesPerActivate::512-639        31126      4.24%     43.64% # Bytes accessed per row activation
system.mem_ctrl.bytesPerActivate::640-767        22659      3.09%     46.73% # Bytes accessed per row activation
system.mem_ctrl.bytesPerActivate::768-895        27771      3.79%     50.52% # Bytes accessed per row activation
system.mem_ctrl.bytesPerActivate::896-1023        17691      2.41%     52.93% # Bytes accessed per row activation
system.mem_ctrl.bytesPerActivate::1024-1151       345131     47.07%    100.00% # Bytes accessed per row activation
system.mem_ctrl.bytesPerActivate::total        733269                       # Bytes accessed per row activation
system.mem_ctrl.rdPerTurnAround::samples         2880                       # Reads before turning the bus around for writes
system.mem_ctrl.rdPerTurnAround::mean     1891.897917                       # Reads before turning the bus around for writes
system.mem_ctrl.rdPerTurnAround::stdev    3270.819579                       # Reads before turning the bus around for writes
system.mem_ctrl.rdPerTurnAround::0-2047          2298     79.79%     79.79% # Reads before turning the bus around for writes
system.mem_ctrl.rdPerTurnAround::2048-4095          308     10.69%     90.49% # Reads before turning the bus around for writes
system.mem_ctrl.rdPerTurnAround::4096-6143          140      4.86%     95.35% # Reads before turning the bus around for writes
system.mem_ctrl.rdPerTurnAround::6144-8191           47      1.63%     96.98% # Reads before turning the bus around for writes
system.mem_ctrl.rdPerTurnAround::8192-10239           21      0.73%     97.71% # Reads before turning the bus around for writes
system.mem_ctrl.rdPerTurnAround::10240-12287           11      0.38%     98.09% # Reads before turning the bus around for writes
system.mem_ctrl.rdPerTurnAround::12288-14335           14      0.49%     98.58% # Reads before turning the bus around for writes
system.mem_ctrl.rdPerTurnAround::14336-16383            6      0.21%     98.78% # Reads before turning the bus around for writes
system.mem_ctrl.rdPerTurnAround::16384-18431            7      0.24%     99.03% # Reads before turning the bus around for writes
system.mem_ctrl.rdPerTurnAround::18432-20479            3      0.10%     99.13% # Reads before turning the bus around for writes
system.mem_ctrl.rdPerTurnAround::20480-22527            8      0.28%     99.41% # Reads before turning the bus around for writes
system.mem_ctrl.rdPerTurnAround::22528-24575            2      0.07%     99.48% # Reads before turning the bus around for writes
system.mem_ctrl.rdPerTurnAround::24576-26623            4      0.14%     99.62% # Reads before turning the bus around for writes
system.mem_ctrl.rdPerTurnAround::26624-28671            4      0.14%     99.76% # Reads before turning the bus around for writes
system.mem_ctrl.rdPerTurnAround::28672-30719            3      0.10%     99.86% # Reads before turning the bus around for writes
system.mem_ctrl.rdPerTurnAround::30720-32767            1      0.03%     99.90% # Reads before turning the bus around for writes
system.mem_ctrl.rdPerTurnAround::40960-43007            1      0.03%     99.93% # Reads before turning the bus around for writes
system.mem_ctrl.rdPerTurnAround::43008-45055            1      0.03%     99.97% # Reads before turning the bus around for writes
system.mem_ctrl.rdPerTurnAround::47104-49151            1      0.03%    100.00% # Reads before turning the bus around for writes
system.mem_ctrl.rdPerTurnAround::total           2880                       # Reads before turning the bus around for writes
system.mem_ctrl.wrPerTurnAround::samples         2880                       # Writes before turning the bus around for reads
system.mem_ctrl.wrPerTurnAround::mean       16.009375                       # Writes before turning the bus around for reads
system.mem_ctrl.wrPerTurnAround::gmean      16.008809                       # Writes before turning the bus around for reads
system.mem_ctrl.wrPerTurnAround::stdev       0.140395                       # Writes before turning the bus around for reads
system.mem_ctrl.wrPerTurnAround::16              2867     99.55%     99.55% # Writes before turning the bus around for reads
system.mem_ctrl.wrPerTurnAround::18                12      0.42%     99.97% # Writes before turning the bus around for reads
system.mem_ctrl.wrPerTurnAround::19                 1      0.03%    100.00% # Writes before turning the bus around for reads
system.mem_ctrl.wrPerTurnAround::total           2880                       # Writes before turning the bus around for reads
system.mem_ctrl.bytesReadDRAM               469899200                       # Total number of bytes read from DRAM
system.mem_ctrl.bytesReadWrQ                  6125120                       # Total number of bytes read from write queue
system.mem_ctrl.bytesWritten                  2950848                       # Total number of bytes written to DRAM
system.mem_ctrl.bytesReadSys                 58472717                       # Total read bytes from the system interface side
system.mem_ctrl.bytesWrittenSys               3758817                       # Total written bytes from the system interface side
system.mem_ctrl.avgRdBW                       1171.61                       # Average DRAM read bandwidth in MiByte/s
system.mem_ctrl.avgWrBW                          7.36                       # Average achieved write bandwidth in MiByte/s
system.mem_ctrl.avgRdBWSys                     145.79                       # Average system read bandwidth in MiByte/s
system.mem_ctrl.avgWrBWSys                       9.37                       # Average system write bandwidth in MiByte/s
system.mem_ctrl.peakBW                       12800.00                       # Theoretical peak bandwidth in MiByte/s
system.mem_ctrl.busUtil                          9.21                       # Data bus utilization in percentage
system.mem_ctrl.busUtilRead                      9.15                       # Data bus utilization in percentage for reads
system.mem_ctrl.busUtilWrite                     0.06                       # Data bus utilization in percentage for writes
system.mem_ctrl.totGap                   401072123000                       # Total gap between requests
system.mem_ctrl.avgGap                       50207.39                       # Average gap between requests
system.mem_ctrl.masterReadBytes::.cpu.inst     53068648                       # Per-master bytes read from memory
system.mem_ctrl.masterReadBytes::.cpu.data      4822125                       # Per-master bytes read from memory
system.mem_ctrl.masterWriteBytes::.cpu.data       315385                       # Per-master bytes write to memory
system.mem_ctrl.masterReadRate::.cpu.inst 132316928.264962062240                       # Per-master bytes read from memory rate (Bytes/sec)
system.mem_ctrl.masterReadRate::.cpu.data 12023083.152781283483                       # Per-master bytes read from memory rate (Bytes/sec)
system.mem_ctrl.masterWriteRate::.cpu.data 786354.580219286145                       # Per-master bytes write to memory rate (Bytes/sec)
system.mem_ctrl.masterReadAccesses::.cpu.inst      6633581                       # Per-master read serviced memory accesses
system.mem_ctrl.masterReadAccesses::.cpu.data       804299                       # Per-master read serviced memory accesses
system.mem_ctrl.masterWriteAccesses::.cpu.data       550429                       # Per-master write serviced memory accesses
system.mem_ctrl.masterReadTotalLat::.cpu.inst 144376034000                       # Per-master read total memory access latency
system.mem_ctrl.masterReadTotalLat::.cpu.data  18417133500                       # Per-master read total memory access latency
system.mem_ctrl.masterWriteTotalLat::.cpu.data 7779011402250                       # Per-master write total memory access latency
system.mem_ctrl.masterReadAvgLat::.cpu.inst     21764.42                       # Per-master read average memory access latency
system.mem_ctrl.masterReadAvgLat::.cpu.data     22898.37                       # Per-master read average memory access latency
system.mem_ctrl.masterWriteAvgLat::.cpu.data  14132633.64                       # Per-master write average memory access latency
system.mem_ctrl.pageHitRate                     90.07                       # Row buffer hit rate, read and write combined
system.mem_ctrl.rank1.actEnergy            1774311420                       # Energy for activate commands per rank (pJ)
system.mem_ctrl.rank1.preEnergy             943068885                       # Energy for precharge commands per rank (pJ)
system.mem_ctrl.rank1.readEnergy          18193591080                       # Energy for read commands per rank (pJ)
system.mem_ctrl.rank1.writeEnergy            76238100                       # Energy for write commands per rank (pJ)
system.mem_ctrl.rank1.refreshEnergy      31660106400.000004                       # Energy for refresh commands per rank (pJ)
system.mem_ctrl.rank1.actBackEnergy      132172421370                       # Energy for active background per rank (pJ)
system.mem_ctrl.rank1.preBackEnergy       42708652320                       # Energy for precharge background per rank (pJ)
system.mem_ctrl.rank1.actPowerDownEnergy            0                       # Energy for active power-down per rank (pJ)
system.mem_ctrl.rank1.prePowerDownEnergy            0                       # Energy for precharge power-down per rank (pJ)
system.mem_ctrl.rank1.selfRefreshEnergy             0                       # Energy for self refresh per rank (pJ)
system.mem_ctrl.rank1.totalEnergy        227528389575                       # Total energy per rank (pJ)
system.mem_ctrl.rank1.averagePower         567.300256                       # Core power per rank (mW)
system.mem_ctrl.rank1.totalIdleTime                 0                       # Total Idle time Per DRAM Rank
system.mem_ctrl.rank1.memoryStateTime::IDLE 109137691500                       # Time in different power states
system.mem_ctrl.rank1.memoryStateTime::REF  13392600000                       # Time in different power states
system.mem_ctrl.rank1.memoryStateTime::SREF            0                       # Time in different power states
system.mem_ctrl.rank1.memoryStateTime::PRE_PDN            0                       # Time in different power states
system.mem_ctrl.rank1.memoryStateTime::ACT 278541957500                       # Time in different power states
system.mem_ctrl.rank1.memoryStateTime::ACT_PDN            0                       # Time in different power states
system.mem_ctrl.rank0.actEnergy            3461236380                       # Energy for activate commands per rank (pJ)
system.mem_ctrl.rank0.preEnergy            1839686970                       # Energy for precharge commands per rank (pJ)
system.mem_ctrl.rank0.readEnergy          34229538420                       # Energy for read commands per rank (pJ)
system.mem_ctrl.rank0.writeEnergy           164440440                       # Energy for write commands per rank (pJ)
system.mem_ctrl.rank0.refreshEnergy      31660106400.000004                       # Energy for refresh commands per rank (pJ)
system.mem_ctrl.rank0.actBackEnergy      166413193470                       # Energy for active background per rank (pJ)
system.mem_ctrl.rank0.preBackEnergy       13874317920                       # Energy for precharge background per rank (pJ)
system.mem_ctrl.rank0.actPowerDownEnergy            0                       # Energy for active power-down per rank (pJ)
system.mem_ctrl.rank0.prePowerDownEnergy            0                       # Energy for precharge power-down per rank (pJ)
system.mem_ctrl.rank0.selfRefreshEnergy             0                       # Energy for self refresh per rank (pJ)
system.mem_ctrl.rank0.totalEnergy        251642520000                       # Total energy per rank (pJ)
system.mem_ctrl.rank0.averagePower         627.424412                       # Core power per rank (mW)
system.mem_ctrl.rank0.totalIdleTime                 0                       # Total Idle time Per DRAM Rank
system.mem_ctrl.rank0.memoryStateTime::IDLE  33106919000                       # Time in different power states
system.mem_ctrl.rank0.memoryStateTime::REF  13392600000                       # Time in different power states
system.mem_ctrl.rank0.memoryStateTime::SREF            0                       # Time in different power states
system.mem_ctrl.rank0.memoryStateTime::PRE_PDN            0                       # Time in different power states
system.mem_ctrl.rank0.memoryStateTime::ACT 354572730000                       # Time in different power states
system.mem_ctrl.rank0.memoryStateTime::ACT_PDN            0                       # Time in different power states
system.mem_ctrl.power_state.pwrStateResidencyTicks::UNDEFINED 401072249000                       # Cumulative time (in ticks) in various power states
system.cache.demand_hits::.cpu.data            628100                       # number of demand (read+write) hits
system.cache.demand_hits::total                628100                       # number of demand (read+write) hits
system.cache.overall_hits::.cpu.data           628770                       # number of overall hits
system.cache.overall_hits::total               628770                       # number of overall hits
system.cache.demand_misses::.cpu.data            2785                       # number of demand (read+write) misses
system.cache.demand_misses::total                2785                       # number of demand (read+write) misses
system.cache.overall_misses::.cpu.data           3313                       # number of overall misses
system.cache.overall_misses::total               3313                       # number of overall misses
system.cache.demand_miss_latency::.cpu.data    171290000                       # number of demand (read+write) miss cycles
system.cache.demand_miss_latency::total     171290000                       # number of demand (read+write) miss cycles
system.cache.overall_miss_latency::.cpu.data    171290000                       # number of overall miss cycles
system.cache.overall_miss_latency::total    171290000                       # number of overall miss cycles
system.cache.demand_accesses::.cpu.data        630885                       # number of demand (read+write) accesses
system.cache.demand_accesses::total            630885                       # number of demand (read+write) accesses
system.cache.overall_accesses::.cpu.data       632083                       # number of overall (read+write) accesses
system.cache.overall_accesses::total           632083                       # number of overall (read+write) accesses
system.cache.demand_miss_rate::.cpu.data     0.004414                       # miss rate for demand accesses
system.cache.demand_miss_rate::total         0.004414                       # miss rate for demand accesses
system.cache.overall_miss_rate::.cpu.data     0.005241                       # miss rate for overall accesses
system.cache.overall_miss_rate::total        0.005241                       # miss rate for overall accesses
system.cache.demand_avg_miss_latency::.cpu.data 61504.488330                       # average overall miss latency
system.cache.demand_avg_miss_latency::total 61504.488330                       # average overall miss latency
system.cache.overall_avg_miss_latency::.cpu.data 51702.384546                       # average overall miss latency
system.cache.overall_avg_miss_latency::total 51702.384546                       # average overall miss latency
system.cache.blocked_cycles::no_mshrs               0                       # number of cycles access was blocked
system.cache.blocked_cycles::no_targets             0                       # number of cycles access was blocked
system.cache.blocked::no_mshrs                      0                       # number of cycles access was blocked
system.cache.blocked::no_targets                    0                       # number of cycles access was blocked
system.cache.avg_blocked_cycles::no_mshrs          nan                       # average number of cycles each access was blocked
system.cache.avg_blocked_cycles::no_targets          nan                       # average number of cycles each access was blocked
system.cache.demand_mshr_misses::.cpu.data         2785                       # number of demand (read+write) MSHR misses
system.cache.demand_mshr_misses::total           2785                       # number of demand (read+write) MSHR misses
system.cache.overall_mshr_misses::.cpu.data         3313                       # number of overall MSHR misses
system.cache.overall_mshr_misses::total          3313                       # number of overall MSHR misses
system.cache.demand_mshr_miss_latency::.cpu.data    165720000                       # number of demand (read+write) MSHR miss cycles
system.cache.demand_mshr_miss_latency::total    165720000                       # number of demand (read+write) MSHR miss cycles
system.cache.overall_mshr_miss_latency::.cpu.data    195249000                       # number of overall MSHR miss cycles
system.cache.overall_mshr_miss_latency::total    195249000                       # number of overall MSHR miss cycles
system.cache.demand_mshr_miss_rate::.cpu.data     0.004414                       # mshr miss rate for demand accesses
system.cache.demand_mshr_miss_rate::total     0.004414                       # mshr miss rate for demand accesses
system.cache.overall_mshr_miss_rate::.cpu.data     0.005241                       # mshr miss rate for overall accesses
system.cache.overall_mshr_miss_rate::total     0.005241                       # mshr miss rate for overall accesses
system.cache.demand_avg_mshr_miss_latency::.cpu.data 59504.488330                       # average overall mshr miss latency
system.cache.demand_avg_mshr_miss_latency::total 59504.488330                       # average overall mshr miss latency
system.cache.overall_avg_mshr_miss_latency::.cpu.data 58934.198612                       # average overall mshr miss latency
system.cache.overall_avg_mshr_miss_latency::total 58934.198612                       # average overall mshr miss latency
system.cache.replacements                           0                       # number of replacements
system.cache.ReadReq_hits::.cpu.data           395800                       # number of ReadReq hits
system.cache.ReadReq_hits::total               395800                       # number of ReadReq hits
system.cache.ReadReq_misses::.cpu.data            705                       # number of ReadReq misses
system.cache.ReadReq_misses::total                705                       # number of ReadReq misses
system.cache.ReadReq_miss_latency::.cpu.data     47156000                       # number of ReadReq miss cycles
system.cache.ReadReq_miss_latency::total     47156000                       # number of ReadReq miss cycles
system.cache.ReadReq_accesses::.cpu.data       396505                       # number of ReadReq accesses(hits+misses)
system.cache.ReadReq_accesses::total           396505                       # number of ReadReq accesses(hits+misses)
system.cache.ReadReq_miss_rate::.cpu.data     0.001778                       # miss rate for ReadReq accesses
system.cache.ReadReq_miss_rate::total        0.001778                       # miss rate for ReadReq accesses
system.cache.ReadReq_avg_miss_latency::.cpu.data 66887.943262                       # average ReadReq miss latency
system.cache.ReadReq_avg_miss_latency::total 66887.943262                       # average ReadReq miss latency
system.cache.ReadReq_mshr_misses::.cpu.data          705                       # number of ReadReq MSHR misses
system.cache.ReadReq_mshr_misses::total           705                       # number of ReadReq MSHR misses
system.cache.ReadReq_mshr_miss_latency::.cpu.data     45746000                       # number of ReadReq MSHR miss cycles
system.cache.ReadReq_mshr_miss_latency::total     45746000                       # number of ReadReq MSHR miss cycles
system.cache.ReadReq_mshr_miss_rate::.cpu.data     0.001778                       # mshr miss rate for ReadReq accesses
system.cache.ReadReq_mshr_miss_rate::total     0.001778                       # mshr miss rate for ReadReq accesses
system.cache.ReadReq_avg_mshr_miss_latency::.cpu.data 64887.943262                       # average ReadReq mshr miss latency
system.cache.ReadReq_avg_mshr_miss_latency::total 64887.943262                       # average ReadReq mshr miss latency
system.cache.WriteReq_hits::.cpu.data          232300                       # number of WriteReq hits
system.cache.WriteReq_hits::total              232300                       # number of WriteReq hits
system.cache.WriteReq_misses::.cpu.data          2080                       # number of WriteReq misses
system.cache.WriteReq_misses::total              2080                       # number of WriteReq misses
system.cache.WriteReq_miss_latency::.cpu.data    124134000                       # number of WriteReq miss cycles
system.cache.WriteReq_miss_latency::total    124134000                       # number of WriteReq miss cycles
system.cache.WriteReq_accesses::.cpu.data       234380                       # number of WriteReq accesses(hits+misses)
system.cache.WriteReq_accesses::total          234380                       # number of WriteReq accesses(hits+misses)
system.cache.WriteReq_miss_rate::.cpu.data     0.008874                       # miss rate for WriteReq accesses
system.cache.WriteReq_miss_rate::total       0.008874                       # miss rate for WriteReq accesses
system.cache.WriteReq_avg_miss_latency::.cpu.data 59679.807692                       # average WriteReq miss latency
system.cache.WriteReq_avg_miss_latency::total 59679.807692                       # average WriteReq miss latency
system.cache.WriteReq_mshr_misses::.cpu.data         2080                       # number of WriteReq MSHR misses
system.cache.WriteReq_mshr_misses::total         2080                       # number of WriteReq MSHR misses
system.cache.WriteReq_mshr_miss_latency::.cpu.data    119974000                       # number of WriteReq MSHR miss cycles
system.cache.WriteReq_mshr_miss_latency::total    119974000                       # number of WriteReq MSHR miss cycles
system.cache.WriteReq_mshr_miss_rate::.cpu.data     0.008874                       # mshr miss rate for WriteReq accesses
system.cache.WriteReq_mshr_miss_rate::total     0.008874                       # mshr miss rate for WriteReq accesses
system.cache.WriteReq_avg_mshr_miss_latency::.cpu.data 57679.807692                       # average WriteReq mshr miss latency
system.cache.WriteReq_avg_mshr_miss_latency::total 57679.807692                       # average WriteReq mshr miss latency
system.cache.SoftPFReq_hits::.cpu.data            670                       # number of SoftPFReq hits
system.cache.SoftPFReq_hits::total                670                       # number of SoftPFReq hits
system.cache.SoftPFReq_misses::.cpu.data          528                       # number of SoftPFReq misses
system.cache.SoftPFReq_misses::total              528                       # number of SoftPFReq misses
system.cache.SoftPFReq_accesses::.cpu.data         1198                       # number of SoftPFReq accesses(hits+misses)
system.cache.SoftPFReq_accesses::total           1198                       # number of SoftPFReq accesses(hits+misses)
system.cache.SoftPFReq_miss_rate::.cpu.data     0.440735                       # miss rate for SoftPFReq accesses
system.cache.SoftPFReq_miss_rate::total      0.440735                       # miss rate for SoftPFReq accesses
system.cache.SoftPFReq_mshr_misses::.cpu.data          528                       # number of SoftPFReq MSHR misses
system.cache.SoftPFReq_mshr_misses::total          528                       # number of SoftPFReq MSHR misses
system.cache.SoftPFReq_mshr_miss_latency::.cpu.data     29529000                       # number of SoftPFReq MSHR miss cycles
system.cache.SoftPFReq_mshr_miss_latency::total     29529000                       # number of SoftPFReq MSHR miss cycles
system.cache.SoftPFReq_mshr_miss_rate::.cpu.data     0.440735                       # mshr miss rate for SoftPFReq accesses
system.cache.SoftPFReq_mshr_miss_rate::total     0.440735                       # mshr miss rate for SoftPFReq accesses
system.cache.SoftPFReq_avg_mshr_miss_latency::.cpu.data 55926.136364                       # average SoftPFReq mshr miss latency
system.cache.SoftPFReq_avg_mshr_miss_latency::total 55926.136364                       # average SoftPFReq mshr miss latency
system.cache.power_state.pwrStateResidencyTicks::UNDEFINED 401072249000                       # Cumulative time (in ticks) in various power states
system.cache.tags.tagsinuse                407.736361                       # Cycle average of tags in use
system.cache.tags.total_refs                   632083                       # Total number of references to valid blocks.
system.cache.tags.sampled_refs                   3313                       # Sample count of references to valid blocks.
system.cache.tags.avg_refs                 190.788711                       # Average number of references to valid blocks.
system.cache.tags.warmup_cycle           300676185000                       # Cycle when the warmup percentage was hit.
system.cache.tags.occ_blocks::.cpu.data    407.736361                       # Average occupied blocks per requestor
system.cache.tags.occ_percent::.cpu.data     0.012443                       # Average percentage of cache occupancy
system.cache.tags.occ_percent::total         0.012443                       # Average percentage of cache occupancy
system.cache.tags.occ_task_id_blocks::1024         3313                       # Occupied blocks per task id
system.cache.tags.age_task_id_blocks_1024::2           19                       # Occupied blocks per task id
system.cache.tags.age_task_id_blocks_1024::3          172                       # Occupied blocks per task id
system.cache.tags.age_task_id_blocks_1024::4         3122                       # Occupied blocks per task id
system.cache.tags.occ_task_id_percent::1024     0.101105                       # Percentage of cache occupancy per task id
system.cache.tags.tag_accesses                 635396                       # Number of tag accesses
system.cache.tags.data_accesses                635396                       # Number of data accesses
system.cache.tags.power_state.pwrStateResidencyTicks::UNDEFINED 401072249000                       # Cumulative time (in ticks) in various power states
system.clk_domain.clock                          1000                       # Clock period in ticks
system.clk_domain.voltage_domain.voltage            1                       # Voltage in Volts
system.cachebus.trans_dist::ReadReq            396505                       # Transaction distribution
system.cachebus.trans_dist::ReadResp           396504                       # Transaction distribution
system.cachebus.trans_dist::WriteReq           234380                       # Transaction distribution
system.cachebus.trans_dist::WriteResp          234380                       # Transaction distribution
system.cachebus.trans_dist::SoftPFReq            1198                       # Transaction distribution
system.cachebus.trans_dist::SoftPFResp           1198                       # Transaction distribution
system.cachebus.pkt_count_system.memobj.cache_side::system.cache.cpu_side      1264165                       # Packet count per connected master and slave (bytes)
system.cachebus.pkt_size_system.memobj.cache_side::system.cache.cpu_side      4240754                       # Cumulative packet size per connected master and slave (bytes)
system.cachebus.snoops                              0                       # Total snoops (count)
system.cachebus.snoopTraffic                        0                       # Total snoop traffic (bytes)
system.cachebus.snoop_fanout::samples          632083                       # Request fanout histogram
system.cachebus.snoop_fanout::mean                  0                       # Request fanout histogram
system.cachebus.snoop_fanout::stdev                 0                       # Request fanout histogram
system.cachebus.snoop_fanout::underflows            0      0.00%      0.00% # Request fanout histogram
system.cachebus.snoop_fanout::0                632083    100.00%    100.00% # Request fanout histogram
system.cachebus.snoop_fanout::overflows             0      0.00%    100.00% # Request fanout histogram
system.cachebus.snoop_fanout::min_value             0                       # Request fanout histogram
system.cachebus.snoop_fanout::max_value             0                       # Request fanout histogram
system.cachebus.snoop_fanout::total            632083                       # Request fanout histogram
system.cachebus.reqLayer0.occupancy         866463000                       # Layer occupancy (ticks)
system.cachebus.reqLayer0.utilization             0.2                       # Layer utilization (%)
system.cachebus.respLayer0.occupancy       1029784000                       # Layer occupancy (ticks)
system.cachebus.respLayer0.utilization            0.3                       # Layer utilization (%)
system.cachebus.power_state.pwrStateResidencyTicks::UNDEFINED 401072249000                       # Cumulative time (in ticks) in various power states
system.cpu.dtb.walker.power_state.pwrStateResidencyTicks::UNDEFINED 401072249000                       # Cumulative time (in ticks) in various power states
system.cpu.interrupts.clk_domain.clock          16000                       # Clock period in ticks
system.cpu.itb.walker.power_state.pwrStateResidencyTicks::UNDEFINED 401072249000                       # Cumulative time (in ticks) in various power states
system.cpu.power_state.numTransitions               1                       # Number of power state transitions
system.cpu.power_state.pwrStateResidencyTicks::ON 401072249000                       # Cumulative time (in ticks) in various power states

---------- End Simulation Statistics   ----------
