
---------- Begin Simulation Statistics ----------
final_tick                                18491738000                       # Number of ticks from beginning of simulation (restored from checkpoints and never reset)
host_inst_rate                                  45967                       # Simulator instruction rate (inst/s)
host_mem_usage                               34198800                       # Number of bytes of host memory used
host_op_rate                                    82843                       # Simulator op (including micro ops) rate (op/s)
host_seconds                                    21.76                       # Real time elapsed on the host
host_tick_rate                              849994772                       # Simulator tick rate (ticks/s)
sim_freq                                 1000000000000                       # Frequency of simulated ticks
sim_insts                                     1000002                       # Number of instructions simulated
sim_ops                                       1802250                       # Number of ops (including micro ops) simulated
sim_seconds                                  0.018492                       # Number of seconds simulated
sim_ticks                                 18491738000                       # Number of ticks simulated
system.cpu.Branches                            200427                       # Number of branches fetched
system.cpu.committedInsts                     1000002                       # Number of instructions committed
system.cpu.committedOps                       1802250                       # Number of ops (including micro ops) committed
system.cpu.dtb.rdAccesses                      200130                       # TLB accesses on read requests
system.cpu.dtb.rdMisses                            15                       # TLB misses on read requests
system.cpu.dtb.wrAccesses                      249167                       # TLB accesses on write requests
system.cpu.dtb.wrMisses                         98945                       # TLB misses on write requests
system.cpu.idle_fraction                            0                       # Percentage of idle cycles
system.cpu.itb.rdAccesses                           0                       # TLB accesses on read requests
system.cpu.itb.rdMisses                             0                       # TLB misses on read requests
system.cpu.itb.wrAccesses                     1250607                       # TLB accesses on write requests
system.cpu.itb.wrMisses                            45                       # TLB misses on write requests
system.cpu.not_idle_fraction                        1                       # Percentage of non-idle cycles
system.cpu.numCycles                         18491727                       # number of cpu cycles simulated
system.cpu.numWorkItemsCompleted                    0                       # number of work items this cpu completed
system.cpu.numWorkItemsStarted                      0                       # number of work items this cpu started
system.cpu.num_busy_cycles                   18491727                       # Number of busy cycles
system.cpu.num_cc_register_reads              1002046                       # number of times the CC registers were read
system.cpu.num_cc_register_writes              798720                       # number of times the CC registers were written
system.cpu.num_conditional_control_insts       199849                       # number of instructions that are conditional controls
system.cpu.num_fp_alu_accesses                    550                       # Number of float alu accesses
system.cpu.num_fp_insts                           550                       # number of float instructions
system.cpu.num_fp_register_reads                  798                       # number of times the floating registers were read
system.cpu.num_fp_register_writes                 306                       # number of times the floating registers were written
system.cpu.num_func_calls                         400                       # number of times a function call or return occured
system.cpu.num_idle_cycles                          0                       # Number of idle cycles
system.cpu.num_int_alu_accesses               1851257                       # Number of integer alu accesses
system.cpu.num_int_insts                      1851257                       # number of integer instructions
system.cpu.num_int_register_reads             3404395                       # number of times the integer registers were read
system.cpu.num_int_register_writes            1401875                       # number of times the integer registers were written
system.cpu.num_load_insts                      200127                       # Number of load instructions
system.cpu.num_mem_refs                        449292                       # number of memory refs
system.cpu.num_store_insts                     249165                       # Number of store instructions
system.cpu.num_vec_alu_accesses                     0                       # Number of vector alu accesses
system.cpu.num_vec_insts                            0                       # number of vector instructions
system.cpu.num_vec_register_reads                   0                       # number of times the vector registers were read
system.cpu.num_vec_register_writes                  0                       # number of times the vector registers were written
system.cpu.op_class::No_OpClass                   191      0.01%      0.01% # Class of executed instruction
system.cpu.op_class::IntAlu                   1401882     75.71%     75.72% # Class of executed instruction
system.cpu.op_class::IntMult                       28      0.00%     75.72% # Class of executed instruction
system.cpu.op_class::IntDiv                        35      0.00%     75.72% # Class of executed instruction
system.cpu.op_class::FloatAdd                      10      0.00%     75.72% # Class of executed instruction
system.cpu.op_class::FloatCmp                       0      0.00%     75.72% # Class of executed instruction
system.cpu.op_class::FloatCvt                       0      0.00%     75.72% # Class of executed instruction
system.cpu.op_class::FloatMult                      0      0.00%     75.72% # Class of executed instruction
system.cpu.op_class::FloatMultAcc                   0      0.00%     75.72% # Class of executed instruction
system.cpu.op_class::FloatDiv                       0      0.00%     75.72% # Class of executed instruction
system.cpu.op_class::FloatMisc                      0      0.00%     75.72% # Class of executed instruction
system.cpu.op_class::FloatSqrt                      0      0.00%     75.72% # Class of executed instruction
system.cpu.op_class::SimdAdd                        0      0.00%     75.72% # Class of executed instruction
system.cpu.op_class::SimdAddAcc                     0      0.00%     75.72% # Class of executed instruction
system.cpu.op_class::SimdAlu                       84      0.00%     75.73% # Class of executed instruction
system.cpu.op_class::SimdCmp                        0      0.00%     75.73% # Class of executed instruction
system.cpu.op_class::SimdCvt                       68      0.00%     75.73% # Class of executed instruction
system.cpu.op_class::SimdMisc                     130      0.01%     75.74% # Class of executed instruction
system.cpu.op_class::SimdMult                       0      0.00%     75.74% # Class of executed instruction
system.cpu.op_class::SimdMultAcc                    0      0.00%     75.74% # Class of executed instruction
system.cpu.op_class::SimdShift                      0      0.00%     75.74% # Class of executed instruction
system.cpu.op_class::SimdShiftAcc                   0      0.00%     75.74% # Class of executed instruction
system.cpu.op_class::SimdDiv                        0      0.00%     75.74% # Class of executed instruction
system.cpu.op_class::SimdSqrt                       0      0.00%     75.74% # Class of executed instruction
system.cpu.op_class::SimdFloatAdd                   0      0.00%     75.74% # Class of executed instruction
system.cpu.op_class::SimdFloatAlu                   0      0.00%     75.74% # Class of executed instruction
system.cpu.op_class::SimdFloatCmp                   0      0.00%     75.74% # Class of executed instruction
system.cpu.op_class::SimdFloatCvt                   0      0.00%     75.74% # Class of executed instruction
system.cpu.op_class::SimdFloatDiv                   0      0.00%     75.74% # Class of executed instruction
system.cpu.op_class::SimdFloatMisc                  0      0.00%     75.74% # Class of executed instruction
system.cpu.op_class::SimdFloatMult                  0      0.00%     75.74% # Class of executed instruction
system.cpu.op_class::SimdFloatMultAcc               0      0.00%     75.74% # Class of executed instruction
system.cpu.op_class::SimdFloatSqrt                  0      0.00%     75.74% # Class of executed instruction
system.cpu.op_class::SimdReduceAdd                  0      0.00%     75.74% # Class of executed instruction
system.cpu.op_class::SimdReduceAlu                  0      0.00%     75.74% # Class of executed instruction
system.cpu.op_class::SimdReduceCmp                  0      0.00%     75.74% # Class of executed instruction
system.cpu.op_class::SimdFloatReduceAdd             0      0.00%     75.74% # Class of executed instruction
system.cpu.op_class::SimdFloatReduceCmp             0      0.00%     75.74% # Class of executed instruction
system.cpu.op_class::SimdAes                        0      0.00%     75.74% # Class of executed instruction
system.cpu.op_class::SimdAesMix                     0      0.00%     75.74% # Class of executed instruction
system.cpu.op_class::SimdSha1Hash                   0      0.00%     75.74% # Class of executed instruction
system.cpu.op_class::SimdSha1Hash2                  0      0.00%     75.74% # Class of executed instruction
system.cpu.op_class::SimdSha256Hash                 0      0.00%     75.74% # Class of executed instruction
system.cpu.op_class::SimdSha256Hash2                0      0.00%     75.74% # Class of executed instruction
system.cpu.op_class::SimdShaSigma2                  0      0.00%     75.74% # Class of executed instruction
system.cpu.op_class::SimdShaSigma3                  0      0.00%     75.74% # Class of executed instruction
system.cpu.op_class::SimdPredAlu                    0      0.00%     75.74% # Class of executed instruction
system.cpu.op_class::MemRead                   200079     10.81%     86.54% # Class of executed instruction
system.cpu.op_class::MemWrite                  248981     13.45%     99.99% # Class of executed instruction
system.cpu.op_class::FloatMemRead                  48      0.00%     99.99% # Class of executed instruction
system.cpu.op_class::FloatMemWrite                184      0.01%    100.00% # Class of executed instruction
system.cpu.op_class::IprAccess                      0      0.00%    100.00% # Class of executed instruction
system.cpu.op_class::InstPrefetch                   0      0.00%    100.00% # Class of executed instruction
system.cpu.op_class::total                    1851720                       # Class of executed instruction
system.cpu.workload.numSyscalls                    11                       # Number of system calls
system.dynamic_cache.flushTicks                     0                       # Ticks taken to flush
system.dynamic_cache.numFlushes                     0                       # Number of Flushes Taken
system.cache_small.demand_hits::.cpu.inst           33                       # number of demand (read+write) hits
system.cache_small.demand_hits::.cpu.data            7                       # number of demand (read+write) hits
system.cache_small.demand_hits::total              40                       # number of demand (read+write) hits
system.cache_small.overall_hits::.cpu.inst           33                       # number of overall hits
system.cache_small.overall_hits::.cpu.data            7                       # number of overall hits
system.cache_small.overall_hits::total             40                       # number of overall hits
system.cache_small.demand_misses::.cpu.inst          423                       # number of demand (read+write) misses
system.cache_small.demand_misses::.cpu.data       198074                       # number of demand (read+write) misses
system.cache_small.demand_misses::total        198497                       # number of demand (read+write) misses
system.cache_small.overall_misses::.cpu.inst          423                       # number of overall misses
system.cache_small.overall_misses::.cpu.data       198074                       # number of overall misses
system.cache_small.overall_misses::total       198497                       # number of overall misses
system.cache_small.demand_miss_latency::.cpu.inst     25299000                       # number of demand (read+write) miss cycles
system.cache_small.demand_miss_latency::.cpu.data  12185907000                       # number of demand (read+write) miss cycles
system.cache_small.demand_miss_latency::total  12211206000                       # number of demand (read+write) miss cycles
system.cache_small.overall_miss_latency::.cpu.inst     25299000                       # number of overall miss cycles
system.cache_small.overall_miss_latency::.cpu.data  12185907000                       # number of overall miss cycles
system.cache_small.overall_miss_latency::total  12211206000                       # number of overall miss cycles
system.cache_small.demand_accesses::.cpu.inst          456                       # number of demand (read+write) accesses
system.cache_small.demand_accesses::.cpu.data       198081                       # number of demand (read+write) accesses
system.cache_small.demand_accesses::total       198537                       # number of demand (read+write) accesses
system.cache_small.overall_accesses::.cpu.inst          456                       # number of overall (read+write) accesses
system.cache_small.overall_accesses::.cpu.data       198081                       # number of overall (read+write) accesses
system.cache_small.overall_accesses::total       198537                       # number of overall (read+write) accesses
system.cache_small.demand_miss_rate::.cpu.inst     0.927632                       # miss rate for demand accesses
system.cache_small.demand_miss_rate::.cpu.data     0.999965                       # miss rate for demand accesses
system.cache_small.demand_miss_rate::total     0.999799                       # miss rate for demand accesses
system.cache_small.overall_miss_rate::.cpu.inst     0.927632                       # miss rate for overall accesses
system.cache_small.overall_miss_rate::.cpu.data     0.999965                       # miss rate for overall accesses
system.cache_small.overall_miss_rate::total     0.999799                       # miss rate for overall accesses
system.cache_small.demand_avg_miss_latency::.cpu.inst 59808.510638                       # average overall miss latency
system.cache_small.demand_avg_miss_latency::.cpu.data 61521.991781                       # average overall miss latency
system.cache_small.demand_avg_miss_latency::total 61518.340328                       # average overall miss latency
system.cache_small.overall_avg_miss_latency::.cpu.inst 59808.510638                       # average overall miss latency
system.cache_small.overall_avg_miss_latency::.cpu.data 61521.991781                       # average overall miss latency
system.cache_small.overall_avg_miss_latency::total 61518.340328                       # average overall miss latency
system.cache_small.blocked_cycles::no_mshrs            0                       # number of cycles access was blocked
system.cache_small.blocked_cycles::no_targets            0                       # number of cycles access was blocked
system.cache_small.blocked::no_mshrs                0                       # number of cycles access was blocked
system.cache_small.blocked::no_targets              0                       # number of cycles access was blocked
system.cache_small.avg_blocked_cycles::no_mshrs          nan                       # average number of cycles each access was blocked
system.cache_small.avg_blocked_cycles::no_targets          nan                       # average number of cycles each access was blocked
system.cache_small.writebacks::.writebacks       197620                       # number of writebacks
system.cache_small.writebacks::total           197620                       # number of writebacks
system.cache_small.demand_mshr_misses::.cpu.inst          423                       # number of demand (read+write) MSHR misses
system.cache_small.demand_mshr_misses::.cpu.data       198074                       # number of demand (read+write) MSHR misses
system.cache_small.demand_mshr_misses::total       198497                       # number of demand (read+write) MSHR misses
system.cache_small.overall_mshr_misses::.cpu.inst          423                       # number of overall MSHR misses
system.cache_small.overall_mshr_misses::.cpu.data       198074                       # number of overall MSHR misses
system.cache_small.overall_mshr_misses::total       198497                       # number of overall MSHR misses
system.cache_small.demand_mshr_miss_latency::.cpu.inst     24453000                       # number of demand (read+write) MSHR miss cycles
system.cache_small.demand_mshr_miss_latency::.cpu.data  11789759000                       # number of demand (read+write) MSHR miss cycles
system.cache_small.demand_mshr_miss_latency::total  11814212000                       # number of demand (read+write) MSHR miss cycles
system.cache_small.overall_mshr_miss_latency::.cpu.inst     24453000                       # number of overall MSHR miss cycles
system.cache_small.overall_mshr_miss_latency::.cpu.data  11789759000                       # number of overall MSHR miss cycles
system.cache_small.overall_mshr_miss_latency::total  11814212000                       # number of overall MSHR miss cycles
system.cache_small.demand_mshr_miss_rate::.cpu.inst     0.927632                       # mshr miss rate for demand accesses
system.cache_small.demand_mshr_miss_rate::.cpu.data     0.999965                       # mshr miss rate for demand accesses
system.cache_small.demand_mshr_miss_rate::total     0.999799                       # mshr miss rate for demand accesses
system.cache_small.overall_mshr_miss_rate::.cpu.inst     0.927632                       # mshr miss rate for overall accesses
system.cache_small.overall_mshr_miss_rate::.cpu.data     0.999965                       # mshr miss rate for overall accesses
system.cache_small.overall_mshr_miss_rate::total     0.999799                       # mshr miss rate for overall accesses
system.cache_small.demand_avg_mshr_miss_latency::.cpu.inst 57808.510638                       # average overall mshr miss latency
system.cache_small.demand_avg_mshr_miss_latency::.cpu.data 59521.991781                       # average overall mshr miss latency
system.cache_small.demand_avg_mshr_miss_latency::total 59518.340328                       # average overall mshr miss latency
system.cache_small.overall_avg_mshr_miss_latency::.cpu.inst 57808.510638                       # average overall mshr miss latency
system.cache_small.overall_avg_mshr_miss_latency::.cpu.data 59521.991781                       # average overall mshr miss latency
system.cache_small.overall_avg_mshr_miss_latency::total 59518.340328                       # average overall mshr miss latency
system.cache_small.replacements                197697                       # number of replacements
system.cache_small.ReadReq_hits::.cpu.inst           33                       # number of ReadReq hits
system.cache_small.ReadReq_hits::.cpu.data            7                       # number of ReadReq hits
system.cache_small.ReadReq_hits::total             40                       # number of ReadReq hits
system.cache_small.ReadReq_misses::.cpu.inst          423                       # number of ReadReq misses
system.cache_small.ReadReq_misses::.cpu.data       198074                       # number of ReadReq misses
system.cache_small.ReadReq_misses::total       198497                       # number of ReadReq misses
system.cache_small.ReadReq_miss_latency::.cpu.inst     25299000                       # number of ReadReq miss cycles
system.cache_small.ReadReq_miss_latency::.cpu.data  12185907000                       # number of ReadReq miss cycles
system.cache_small.ReadReq_miss_latency::total  12211206000                       # number of ReadReq miss cycles
system.cache_small.ReadReq_accesses::.cpu.inst          456                       # number of ReadReq accesses(hits+misses)
system.cache_small.ReadReq_accesses::.cpu.data       198081                       # number of ReadReq accesses(hits+misses)
system.cache_small.ReadReq_accesses::total       198537                       # number of ReadReq accesses(hits+misses)
system.cache_small.ReadReq_miss_rate::.cpu.inst     0.927632                       # miss rate for ReadReq accesses
system.cache_small.ReadReq_miss_rate::.cpu.data     0.999965                       # miss rate for ReadReq accesses
system.cache_small.ReadReq_miss_rate::total     0.999799                       # miss rate for ReadReq accesses
system.cache_small.ReadReq_avg_miss_latency::.cpu.inst 59808.510638                       # average ReadReq miss latency
system.cache_small.ReadReq_avg_miss_latency::.cpu.data 61521.991781                       # average ReadReq miss latency
system.cache_small.ReadReq_avg_miss_latency::total 61518.340328                       # average ReadReq miss latency
system.cache_small.ReadReq_mshr_misses::.cpu.inst          423                       # number of ReadReq MSHR misses
system.cache_small.ReadReq_mshr_misses::.cpu.data       198074                       # number of ReadReq MSHR misses
system.cache_small.ReadReq_mshr_misses::total       198497                       # number of ReadReq MSHR misses
system.cache_small.ReadReq_mshr_miss_latency::.cpu.inst     24453000                       # number of ReadReq MSHR miss cycles
system.cache_small.ReadReq_mshr_miss_latency::.cpu.data  11789759000                       # number of ReadReq MSHR miss cycles
system.cache_small.ReadReq_mshr_miss_latency::total  11814212000                       # number of ReadReq MSHR miss cycles
system.cache_small.ReadReq_mshr_miss_rate::.cpu.inst     0.927632                       # mshr miss rate for ReadReq accesses
system.cache_small.ReadReq_mshr_miss_rate::.cpu.data     0.999965                       # mshr miss rate for ReadReq accesses
system.cache_small.ReadReq_mshr_miss_rate::total     0.999799                       # mshr miss rate for ReadReq accesses
system.cache_small.ReadReq_avg_mshr_miss_latency::.cpu.inst 57808.510638                       # average ReadReq mshr miss latency
system.cache_small.ReadReq_avg_mshr_miss_latency::.cpu.data 59521.991781                       # average ReadReq mshr miss latency
system.cache_small.ReadReq_avg_mshr_miss_latency::total 59518.340328                       # average ReadReq mshr miss latency
system.cache_small.WritebackDirty_hits::.writebacks       197870                       # number of WritebackDirty hits
system.cache_small.WritebackDirty_hits::total       197870                       # number of WritebackDirty hits
system.cache_small.WritebackDirty_accesses::.writebacks       197870                       # number of WritebackDirty accesses(hits+misses)
system.cache_small.WritebackDirty_accesses::total       197870                       # number of WritebackDirty accesses(hits+misses)
system.cache_small.power_state.pwrStateResidencyTicks::UNDEFINED  18491738000                       # Cumulative time (in ticks) in various power states
system.cache_small.tags.tagsinuse          800.673787                       # Cycle average of tags in use
system.cache_small.tags.total_refs             395318                       # Total number of references to valid blocks.
system.cache_small.tags.sampled_refs           197697                       # Sample count of references to valid blocks.
system.cache_small.tags.avg_refs             1.999616                       # Average number of references to valid blocks.
system.cache_small.tags.warmup_cycle            76000                       # Cycle when the warmup percentage was hit.
system.cache_small.tags.occ_blocks::.writebacks     1.994488                       # Average occupied blocks per requestor
system.cache_small.tags.occ_blocks::.cpu.inst   371.247431                       # Average occupied blocks per requestor
system.cache_small.tags.occ_blocks::.cpu.data   427.431868                       # Average occupied blocks per requestor
system.cache_small.tags.occ_percent::.writebacks     0.000487                       # Average percentage of cache occupancy
system.cache_small.tags.occ_percent::.cpu.inst     0.090637                       # Average percentage of cache occupancy
system.cache_small.tags.occ_percent::.cpu.data     0.104353                       # Average percentage of cache occupancy
system.cache_small.tags.occ_percent::total     0.195477                       # Average percentage of cache occupancy
system.cache_small.tags.occ_task_id_blocks::1024          803                       # Occupied blocks per task id
system.cache_small.tags.age_task_id_blocks_1024::0          109                       # Occupied blocks per task id
system.cache_small.tags.age_task_id_blocks_1024::1          147                       # Occupied blocks per task id
system.cache_small.tags.age_task_id_blocks_1024::4          547                       # Occupied blocks per task id
system.cache_small.tags.occ_task_id_percent::1024     0.196045                       # Percentage of cache occupancy per task id
system.cache_small.tags.tag_accesses           594907                       # Number of tag accesses
system.cache_small.tags.data_accesses          594907                       # Number of data accesses
system.cache_small.tags.power_state.pwrStateResidencyTicks::UNDEFINED  18491738000                       # Cumulative time (in ticks) in various power states
system.icache.demand_hits::.cpu.inst          1250147                       # number of demand (read+write) hits
system.icache.demand_hits::total              1250147                       # number of demand (read+write) hits
system.icache.overall_hits::.cpu.inst         1250147                       # number of overall hits
system.icache.overall_hits::total             1250147                       # number of overall hits
system.icache.demand_misses::.cpu.inst            460                       # number of demand (read+write) misses
system.icache.demand_misses::total                460                       # number of demand (read+write) misses
system.icache.overall_misses::.cpu.inst           460                       # number of overall misses
system.icache.overall_misses::total               460                       # number of overall misses
system.icache.demand_miss_latency::.cpu.inst     33195000                       # number of demand (read+write) miss cycles
system.icache.demand_miss_latency::total     33195000                       # number of demand (read+write) miss cycles
system.icache.overall_miss_latency::.cpu.inst     33195000                       # number of overall miss cycles
system.icache.overall_miss_latency::total     33195000                       # number of overall miss cycles
system.icache.demand_accesses::.cpu.inst      1250607                       # number of demand (read+write) accesses
system.icache.demand_accesses::total          1250607                       # number of demand (read+write) accesses
system.icache.overall_accesses::.cpu.inst      1250607                       # number of overall (read+write) accesses
system.icache.overall_accesses::total         1250607                       # number of overall (read+write) accesses
system.icache.demand_miss_rate::.cpu.inst     0.000368                       # miss rate for demand accesses
system.icache.demand_miss_rate::total        0.000368                       # miss rate for demand accesses
system.icache.overall_miss_rate::.cpu.inst     0.000368                       # miss rate for overall accesses
system.icache.overall_miss_rate::total       0.000368                       # miss rate for overall accesses
system.icache.demand_avg_miss_latency::.cpu.inst 72163.043478                       # average overall miss latency
system.icache.demand_avg_miss_latency::total 72163.043478                       # average overall miss latency
system.icache.overall_avg_miss_latency::.cpu.inst 72163.043478                       # average overall miss latency
system.icache.overall_avg_miss_latency::total 72163.043478                       # average overall miss latency
system.icache.blocked_cycles::no_mshrs              0                       # number of cycles access was blocked
system.icache.blocked_cycles::no_targets            0                       # number of cycles access was blocked
system.icache.blocked::no_mshrs                     0                       # number of cycles access was blocked
system.icache.blocked::no_targets                   0                       # number of cycles access was blocked
system.icache.avg_blocked_cycles::no_mshrs          nan                       # average number of cycles each access was blocked
system.icache.avg_blocked_cycles::no_targets          nan                       # average number of cycles each access was blocked
system.icache.demand_mshr_misses::.cpu.inst          460                       # number of demand (read+write) MSHR misses
system.icache.demand_mshr_misses::total           460                       # number of demand (read+write) MSHR misses
system.icache.overall_mshr_misses::.cpu.inst          460                       # number of overall MSHR misses
system.icache.overall_mshr_misses::total          460                       # number of overall MSHR misses
system.icache.demand_mshr_miss_latency::.cpu.inst     32275000                       # number of demand (read+write) MSHR miss cycles
system.icache.demand_mshr_miss_latency::total     32275000                       # number of demand (read+write) MSHR miss cycles
system.icache.overall_mshr_miss_latency::.cpu.inst     32275000                       # number of overall MSHR miss cycles
system.icache.overall_mshr_miss_latency::total     32275000                       # number of overall MSHR miss cycles
system.icache.demand_mshr_miss_rate::.cpu.inst     0.000368                       # mshr miss rate for demand accesses
system.icache.demand_mshr_miss_rate::total     0.000368                       # mshr miss rate for demand accesses
system.icache.overall_mshr_miss_rate::.cpu.inst     0.000368                       # mshr miss rate for overall accesses
system.icache.overall_mshr_miss_rate::total     0.000368                       # mshr miss rate for overall accesses
system.icache.demand_avg_mshr_miss_latency::.cpu.inst 70163.043478                       # average overall mshr miss latency
system.icache.demand_avg_mshr_miss_latency::total 70163.043478                       # average overall mshr miss latency
system.icache.overall_avg_mshr_miss_latency::.cpu.inst 70163.043478                       # average overall mshr miss latency
system.icache.overall_avg_mshr_miss_latency::total 70163.043478                       # average overall mshr miss latency
system.icache.replacements                        243                       # number of replacements
system.icache.ReadReq_hits::.cpu.inst         1250147                       # number of ReadReq hits
system.icache.ReadReq_hits::total             1250147                       # number of ReadReq hits
system.icache.ReadReq_misses::.cpu.inst           460                       # number of ReadReq misses
system.icache.ReadReq_misses::total               460                       # number of ReadReq misses
system.icache.ReadReq_miss_latency::.cpu.inst     33195000                       # number of ReadReq miss cycles
system.icache.ReadReq_miss_latency::total     33195000                       # number of ReadReq miss cycles
system.icache.ReadReq_accesses::.cpu.inst      1250607                       # number of ReadReq accesses(hits+misses)
system.icache.ReadReq_accesses::total         1250607                       # number of ReadReq accesses(hits+misses)
system.icache.ReadReq_miss_rate::.cpu.inst     0.000368                       # miss rate for ReadReq accesses
system.icache.ReadReq_miss_rate::total       0.000368                       # miss rate for ReadReq accesses
system.icache.ReadReq_avg_miss_latency::.cpu.inst 72163.043478                       # average ReadReq miss latency
system.icache.ReadReq_avg_miss_latency::total 72163.043478                       # average ReadReq miss latency
system.icache.ReadReq_mshr_misses::.cpu.inst          460                       # number of ReadReq MSHR misses
system.icache.ReadReq_mshr_misses::total          460                       # number of ReadReq MSHR misses
system.icache.ReadReq_mshr_miss_latency::.cpu.inst     32275000                       # number of ReadReq MSHR miss cycles
system.icache.ReadReq_mshr_miss_latency::total     32275000                       # number of ReadReq MSHR miss cycles
system.icache.ReadReq_mshr_miss_rate::.cpu.inst     0.000368                       # mshr miss rate for ReadReq accesses
system.icache.ReadReq_mshr_miss_rate::total     0.000368                       # mshr miss rate for ReadReq accesses
system.icache.ReadReq_avg_mshr_miss_latency::.cpu.inst 70163.043478                       # average ReadReq mshr miss latency
system.icache.ReadReq_avg_mshr_miss_latency::total 70163.043478                       # average ReadReq mshr miss latency
system.icache.power_state.pwrStateResidencyTicks::UNDEFINED  18491738000                       # Cumulative time (in ticks) in various power states
system.icache.tags.tagsinuse               216.639677                       # Cycle average of tags in use
system.icache.tags.total_refs                    6638                       # Total number of references to valid blocks.
system.icache.tags.sampled_refs                   243                       # Sample count of references to valid blocks.
system.icache.tags.avg_refs                 27.316872                       # Average number of references to valid blocks.
system.icache.tags.warmup_cycle                 82000                       # Cycle when the warmup percentage was hit.
system.icache.tags.occ_blocks::.cpu.inst   216.639677                       # Average occupied blocks per requestor
system.icache.tags.occ_percent::.cpu.inst     0.846249                       # Average percentage of cache occupancy
system.icache.tags.occ_percent::total        0.846249                       # Average percentage of cache occupancy
system.icache.tags.occ_task_id_blocks::1024          217                       # Occupied blocks per task id
system.icache.tags.age_task_id_blocks_1024::4          217                       # Occupied blocks per task id
system.icache.tags.occ_task_id_percent::1024     0.847656                       # Percentage of cache occupancy per task id
system.icache.tags.tag_accesses               1251067                       # Number of tag accesses
system.icache.tags.data_accesses              1251067                       # Number of data accesses
system.icache.tags.power_state.pwrStateResidencyTicks::UNDEFINED  18491738000                       # Cumulative time (in ticks) in various power states
system.membus.trans_dist::ReadReq              198497                       # Transaction distribution
system.membus.trans_dist::ReadResp             198497                       # Transaction distribution
system.membus.trans_dist::WritebackDirty       197620                       # Transaction distribution
system.membus.pkt_count_system.cache_small.mem_side::system.mem_ctrl.port       594614                       # Packet count per connected master and slave (bytes)
system.membus.pkt_count_system.cache_small.mem_side::total       594614                       # Packet count per connected master and slave (bytes)
system.membus.pkt_count::total                 594614                       # Packet count per connected master and slave (bytes)
system.membus.pkt_size_system.cache_small.mem_side::system.mem_ctrl.port     25351488                       # Cumulative packet size per connected master and slave (bytes)
system.membus.pkt_size_system.cache_small.mem_side::total     25351488                       # Cumulative packet size per connected master and slave (bytes)
system.membus.pkt_size::total                25351488                       # Cumulative packet size per connected master and slave (bytes)
system.membus.reqLayer2.occupancy          1186597000                       # Layer occupancy (ticks)
system.membus.reqLayer2.utilization               6.4                       # Layer utilization (%)
system.membus.respLayer1.occupancy         1050194750                       # Layer occupancy (ticks)
system.membus.respLayer1.utilization              5.7                       # Layer utilization (%)
system.membus.power_state.pwrStateResidencyTicks::UNDEFINED  18491738000                       # Cumulative time (in ticks) in various power states
system.mem_ctrl.bytes_read::.cpu.inst           27072                       # Number of bytes read from this memory
system.mem_ctrl.bytes_read::.cpu.data        12676736                       # Number of bytes read from this memory
system.mem_ctrl.bytes_read::total            12703808                       # Number of bytes read from this memory
system.mem_ctrl.bytes_inst_read::.cpu.inst        27072                       # Number of instructions bytes read from this memory
system.mem_ctrl.bytes_inst_read::total          27072                       # Number of instructions bytes read from this memory
system.mem_ctrl.bytes_written::.writebacks     12647680                       # Number of bytes written to this memory
system.mem_ctrl.bytes_written::total         12647680                       # Number of bytes written to this memory
system.mem_ctrl.num_reads::.cpu.inst              423                       # Number of read requests responded to by this memory
system.mem_ctrl.num_reads::.cpu.data           198074                       # Number of read requests responded to by this memory
system.mem_ctrl.num_reads::total               198497                       # Number of read requests responded to by this memory
system.mem_ctrl.num_writes::.writebacks        197620                       # Number of write requests responded to by this memory
system.mem_ctrl.num_writes::total              197620                       # Number of write requests responded to by this memory
system.mem_ctrl.bw_read::.cpu.inst            1464005                       # Total read bandwidth from this memory (bytes/s)
system.mem_ctrl.bw_read::.cpu.data          685535129                       # Total read bandwidth from this memory (bytes/s)
system.mem_ctrl.bw_read::total              686999134                       # Total read bandwidth from this memory (bytes/s)
system.mem_ctrl.bw_inst_read::.cpu.inst       1464005                       # Instruction read bandwidth from this memory (bytes/s)
system.mem_ctrl.bw_inst_read::total           1464005                       # Instruction read bandwidth from this memory (bytes/s)
system.mem_ctrl.bw_write::.writebacks       683963833                       # Write bandwidth from this memory (bytes/s)
system.mem_ctrl.bw_write::total             683963833                       # Write bandwidth from this memory (bytes/s)
system.mem_ctrl.bw_total::.writebacks       683963833                       # Total bandwidth to/from this memory (bytes/s)
system.mem_ctrl.bw_total::.cpu.inst           1464005                       # Total bandwidth to/from this memory (bytes/s)
system.mem_ctrl.bw_total::.cpu.data         685535129                       # Total bandwidth to/from this memory (bytes/s)
system.mem_ctrl.bw_total::total            1370962967                       # Total bandwidth to/from this memory (bytes/s)
system.mem_ctrl.avgPriority_.writebacks::samples    197620.00                       # Average QoS priority value for accepted requests
system.mem_ctrl.avgPriority_.cpu.inst::samples       423.00                       # Average QoS priority value for accepted requests
system.mem_ctrl.avgPriority_.cpu.data::samples    198074.00                       # Average QoS priority value for accepted requests
system.mem_ctrl.priorityMinLatency       0.000000018750                       # per QoS priority minimum request to response latency (s)
system.mem_ctrl.priorityMaxLatency       0.000013572500                       # per QoS priority maximum request to response latency (s)
system.mem_ctrl.numReadWriteTurnArounds         12349                       # Number of turnarounds from READ to WRITE
system.mem_ctrl.numWriteReadTurnArounds         12349                       # Number of turnarounds from WRITE to READ
system.mem_ctrl.numStayReadState               586655                       # Number of times bus staying in READ state
system.mem_ctrl.numStayWriteState              185777                       # Number of times bus staying in WRITE state
system.mem_ctrl.readReqs                       198497                       # Number of read requests accepted
system.mem_ctrl.writeReqs                      197620                       # Number of write requests accepted
system.mem_ctrl.readBursts                     198497                       # Number of DRAM read bursts, including those serviced by the write queue
system.mem_ctrl.writeBursts                    197620                       # Number of DRAM write bursts, including those merged in the write queue
system.mem_ctrl.servicedByWrQ                       0                       # Number of DRAM read bursts serviced by the write queue
system.mem_ctrl.mergedWrBursts                      0                       # Number of DRAM write bursts merged with an existing one
system.mem_ctrl.neitherReadNorWriteReqs             0                       # Number of requests that are neither read nor write
system.mem_ctrl.perBankRdBursts::0              12465                       # Per bank write bursts
system.mem_ctrl.perBankRdBursts::1              12387                       # Per bank write bursts
system.mem_ctrl.perBankRdBursts::2              12428                       # Per bank write bursts
system.mem_ctrl.perBankRdBursts::3              12438                       # Per bank write bursts
system.mem_ctrl.perBankRdBursts::4              12433                       # Per bank write bursts
system.mem_ctrl.perBankRdBursts::5              12414                       # Per bank write bursts
system.mem_ctrl.perBankRdBursts::6              12383                       # Per bank write bursts
system.mem_ctrl.perBankRdBursts::7              12369                       # Per bank write bursts
system.mem_ctrl.perBankRdBursts::8              12379                       # Per bank write bursts
system.mem_ctrl.perBankRdBursts::9              12402                       # Per bank write bursts
system.mem_ctrl.perBankRdBursts::10             12388                       # Per bank write bursts
system.mem_ctrl.perBankRdBursts::11             12394                       # Per bank write bursts
system.mem_ctrl.perBankRdBursts::12             12396                       # Per bank write bursts
system.mem_ctrl.perBankRdBursts::13             12431                       # Per bank write bursts
system.mem_ctrl.perBankRdBursts::14             12375                       # Per bank write bursts
system.mem_ctrl.perBankRdBursts::15             12415                       # Per bank write bursts
system.mem_ctrl.perBankWrBursts::0              12346                       # Per bank write bursts
system.mem_ctrl.perBankWrBursts::1              12344                       # Per bank write bursts
system.mem_ctrl.perBankWrBursts::2              12344                       # Per bank write bursts
system.mem_ctrl.perBankWrBursts::3              12347                       # Per bank write bursts
system.mem_ctrl.perBankWrBursts::4              12345                       # Per bank write bursts
system.mem_ctrl.perBankWrBursts::5              12346                       # Per bank write bursts
system.mem_ctrl.perBankWrBursts::6              12348                       # Per bank write bursts
system.mem_ctrl.perBankWrBursts::7              12352                       # Per bank write bursts
system.mem_ctrl.perBankWrBursts::8              12352                       # Per bank write bursts
system.mem_ctrl.perBankWrBursts::9              12352                       # Per bank write bursts
system.mem_ctrl.perBankWrBursts::10             12352                       # Per bank write bursts
system.mem_ctrl.perBankWrBursts::11             12352                       # Per bank write bursts
system.mem_ctrl.perBankWrBursts::12             12352                       # Per bank write bursts
system.mem_ctrl.perBankWrBursts::13             12352                       # Per bank write bursts
system.mem_ctrl.perBankWrBursts::14             12352                       # Per bank write bursts
system.mem_ctrl.perBankWrBursts::15             12354                       # Per bank write bursts
system.mem_ctrl.avgRdQLen                        1.00                       # Average read queue length when enqueuing
system.mem_ctrl.avgWrQLen                       25.69                       # Average write queue length when enqueuing
system.mem_ctrl.totQLat                    1881276500                       # Total ticks spent queuing
system.mem_ctrl.totBusLat                   992485000                       # Total ticks spent in databus transfers
system.mem_ctrl.totMemAccLat               5603095250                       # Total ticks spent from burst creation until serviced by the DRAM
system.mem_ctrl.avgQLat                       9477.61                       # Average queueing delay per DRAM burst
system.mem_ctrl.avgBusLat                     5000.00                       # Average bus latency per DRAM burst
system.mem_ctrl.avgMemAccLat                 28227.61                       # Average memory access latency per DRAM burst
system.mem_ctrl.numRdRetry                          0                       # Number of times read queue was full causing retry
system.mem_ctrl.numWrRetry                          0                       # Number of times write queue was full causing retry
system.mem_ctrl.readRowHits                    171634                       # Number of row buffer hits during reads
system.mem_ctrl.writeRowHits                   170531                       # Number of row buffer hits during writes
system.mem_ctrl.readRowHitRate                  86.47                       # Row buffer hit rate for reads
system.mem_ctrl.writeRowHitRate                 86.29                       # Row buffer hit rate for writes
system.mem_ctrl.readPktSize::0                      0                       # Read request sizes (log2)
system.mem_ctrl.readPktSize::1                      0                       # Read request sizes (log2)
system.mem_ctrl.readPktSize::2                      0                       # Read request sizes (log2)
system.mem_ctrl.readPktSize::3                      0                       # Read request sizes (log2)
system.mem_ctrl.readPktSize::4                      0                       # Read request sizes (log2)
system.mem_ctrl.readPktSize::5                      0                       # Read request sizes (log2)
system.mem_ctrl.readPktSize::6                 198497                       # Read request sizes (log2)
system.mem_ctrl.writePktSize::0                     0                       # Write request sizes (log2)
system.mem_ctrl.writePktSize::1                     0                       # Write request sizes (log2)
system.mem_ctrl.writePktSize::2                     0                       # Write request sizes (log2)
system.mem_ctrl.writePktSize::3                     0                       # Write request sizes (log2)
system.mem_ctrl.writePktSize::4                     0                       # Write request sizes (log2)
system.mem_ctrl.writePktSize::5                     0                       # Write request sizes (log2)
system.mem_ctrl.writePktSize::6                197620                       # Write request sizes (log2)
system.mem_ctrl.rdQLenPdf::0                   198497                       # What read queue length does an incoming req see
system.mem_ctrl.rdQLenPdf::1                        0                       # What read queue length does an incoming req see
system.mem_ctrl.rdQLenPdf::2                        0                       # What read queue length does an incoming req see
system.mem_ctrl.rdQLenPdf::3                        0                       # What read queue length does an incoming req see
system.mem_ctrl.rdQLenPdf::4                        0                       # What read queue length does an incoming req see
system.mem_ctrl.rdQLenPdf::5                        0                       # What read queue length does an incoming req see
system.mem_ctrl.rdQLenPdf::6                        0                       # What read queue length does an incoming req see
system.mem_ctrl.rdQLenPdf::7                        0                       # What read queue length does an incoming req see
system.mem_ctrl.rdQLenPdf::8                        0                       # What read queue length does an incoming req see
system.mem_ctrl.rdQLenPdf::9                        0                       # What read queue length does an incoming req see
system.mem_ctrl.rdQLenPdf::10                       0                       # What read queue length does an incoming req see
system.mem_ctrl.rdQLenPdf::11                       0                       # What read queue length does an incoming req see
system.mem_ctrl.rdQLenPdf::12                       0                       # What read queue length does an incoming req see
system.mem_ctrl.rdQLenPdf::13                       0                       # What read queue length does an incoming req see
system.mem_ctrl.rdQLenPdf::14                       0                       # What read queue length does an incoming req see
system.mem_ctrl.rdQLenPdf::15                       0                       # What read queue length does an incoming req see
system.mem_ctrl.rdQLenPdf::16                       0                       # What read queue length does an incoming req see
system.mem_ctrl.rdQLenPdf::17                       0                       # What read queue length does an incoming req see
system.mem_ctrl.rdQLenPdf::18                       0                       # What read queue length does an incoming req see
system.mem_ctrl.rdQLenPdf::19                       0                       # What read queue length does an incoming req see
system.mem_ctrl.rdQLenPdf::20                       0                       # What read queue length does an incoming req see
system.mem_ctrl.rdQLenPdf::21                       0                       # What read queue length does an incoming req see
system.mem_ctrl.rdQLenPdf::22                       0                       # What read queue length does an incoming req see
system.mem_ctrl.rdQLenPdf::23                       0                       # What read queue length does an incoming req see
system.mem_ctrl.rdQLenPdf::24                       0                       # What read queue length does an incoming req see
system.mem_ctrl.rdQLenPdf::25                       0                       # What read queue length does an incoming req see
system.mem_ctrl.rdQLenPdf::26                       0                       # What read queue length does an incoming req see
system.mem_ctrl.rdQLenPdf::27                       0                       # What read queue length does an incoming req see
system.mem_ctrl.rdQLenPdf::28                       0                       # What read queue length does an incoming req see
system.mem_ctrl.rdQLenPdf::29                       0                       # What read queue length does an incoming req see
system.mem_ctrl.rdQLenPdf::30                       0                       # What read queue length does an incoming req see
system.mem_ctrl.rdQLenPdf::31                       0                       # What read queue length does an incoming req see
system.mem_ctrl.wrQLenPdf::0                        1                       # What write queue length does an incoming req see
system.mem_ctrl.wrQLenPdf::1                        1                       # What write queue length does an incoming req see
system.mem_ctrl.wrQLenPdf::2                        1                       # What write queue length does an incoming req see
system.mem_ctrl.wrQLenPdf::3                        1                       # What write queue length does an incoming req see
system.mem_ctrl.wrQLenPdf::4                        1                       # What write queue length does an incoming req see
system.mem_ctrl.wrQLenPdf::5                        1                       # What write queue length does an incoming req see
system.mem_ctrl.wrQLenPdf::6                        1                       # What write queue length does an incoming req see
system.mem_ctrl.wrQLenPdf::7                        1                       # What write queue length does an incoming req see
system.mem_ctrl.wrQLenPdf::8                        1                       # What write queue length does an incoming req see
system.mem_ctrl.wrQLenPdf::9                        1                       # What write queue length does an incoming req see
system.mem_ctrl.wrQLenPdf::10                       1                       # What write queue length does an incoming req see
system.mem_ctrl.wrQLenPdf::11                       1                       # What write queue length does an incoming req see
system.mem_ctrl.wrQLenPdf::12                       1                       # What write queue length does an incoming req see
system.mem_ctrl.wrQLenPdf::13                       1                       # What write queue length does an incoming req see
system.mem_ctrl.wrQLenPdf::14                       1                       # What write queue length does an incoming req see
system.mem_ctrl.wrQLenPdf::15                       3                       # What write queue length does an incoming req see
system.mem_ctrl.wrQLenPdf::16                       3                       # What write queue length does an incoming req see
system.mem_ctrl.wrQLenPdf::17                   12350                       # What write queue length does an incoming req see
system.mem_ctrl.wrQLenPdf::18                   12350                       # What write queue length does an incoming req see
system.mem_ctrl.wrQLenPdf::19                   12352                       # What write queue length does an incoming req see
system.mem_ctrl.wrQLenPdf::20                   12350                       # What write queue length does an incoming req see
system.mem_ctrl.wrQLenPdf::21                   12350                       # What write queue length does an incoming req see
system.mem_ctrl.wrQLenPdf::22                   12350                       # What write queue length does an incoming req see
system.mem_ctrl.wrQLenPdf::23                   12350                       # What write queue length does an incoming req see
system.mem_ctrl.wrQLenPdf::24                   12350                       # What write queue length does an incoming req see
system.mem_ctrl.wrQLenPdf::25                   12350                       # What write queue length does an incoming req see
system.mem_ctrl.wrQLenPdf::26                   12350                       # What write queue length does an incoming req see
system.mem_ctrl.wrQLenPdf::27                   12350                       # What write queue length does an incoming req see
system.mem_ctrl.wrQLenPdf::28                   12350                       # What write queue length does an incoming req see
system.mem_ctrl.wrQLenPdf::29                   12350                       # What write queue length does an incoming req see
system.mem_ctrl.wrQLenPdf::30                   12349                       # What write queue length does an incoming req see
system.mem_ctrl.wrQLenPdf::31                   12349                       # What write queue length does an incoming req see
system.mem_ctrl.wrQLenPdf::32                   12349                       # What write queue length does an incoming req see
system.mem_ctrl.wrQLenPdf::33                       0                       # What write queue length does an incoming req see
system.mem_ctrl.wrQLenPdf::34                       0                       # What write queue length does an incoming req see
system.mem_ctrl.wrQLenPdf::35                       0                       # What write queue length does an incoming req see
system.mem_ctrl.wrQLenPdf::36                       0                       # What write queue length does an incoming req see
system.mem_ctrl.wrQLenPdf::37                       0                       # What write queue length does an incoming req see
system.mem_ctrl.wrQLenPdf::38                       0                       # What write queue length does an incoming req see
system.mem_ctrl.wrQLenPdf::39                       0                       # What write queue length does an incoming req see
system.mem_ctrl.wrQLenPdf::40                       0                       # What write queue length does an incoming req see
system.mem_ctrl.wrQLenPdf::41                       0                       # What write queue length does an incoming req see
system.mem_ctrl.wrQLenPdf::42                       0                       # What write queue length does an incoming req see
system.mem_ctrl.wrQLenPdf::43                       0                       # What write queue length does an incoming req see
system.mem_ctrl.wrQLenPdf::44                       0                       # What write queue length does an incoming req see
system.mem_ctrl.wrQLenPdf::45                       0                       # What write queue length does an incoming req see
system.mem_ctrl.wrQLenPdf::46                       0                       # What write queue length does an incoming req see
system.mem_ctrl.wrQLenPdf::47                       0                       # What write queue length does an incoming req see
system.mem_ctrl.wrQLenPdf::48                       0                       # What write queue length does an incoming req see
system.mem_ctrl.wrQLenPdf::49                       0                       # What write queue length does an incoming req see
system.mem_ctrl.wrQLenPdf::50                       0                       # What write queue length does an incoming req see
system.mem_ctrl.wrQLenPdf::51                       0                       # What write queue length does an incoming req see
system.mem_ctrl.wrQLenPdf::52                       0                       # What write queue length does an incoming req see
system.mem_ctrl.wrQLenPdf::53                       0                       # What write queue length does an incoming req see
system.mem_ctrl.wrQLenPdf::54                       0                       # What write queue length does an incoming req see
system.mem_ctrl.wrQLenPdf::55                       0                       # What write queue length does an incoming req see
system.mem_ctrl.wrQLenPdf::56                       0                       # What write queue length does an incoming req see
system.mem_ctrl.wrQLenPdf::57                       0                       # What write queue length does an incoming req see
system.mem_ctrl.wrQLenPdf::58                       0                       # What write queue length does an incoming req see
system.mem_ctrl.wrQLenPdf::59                       0                       # What write queue length does an incoming req see
system.mem_ctrl.wrQLenPdf::60                       0                       # What write queue length does an incoming req see
system.mem_ctrl.wrQLenPdf::61                       0                       # What write queue length does an incoming req see
system.mem_ctrl.wrQLenPdf::62                       0                       # What write queue length does an incoming req see
system.mem_ctrl.wrQLenPdf::63                       0                       # What write queue length does an incoming req see
system.mem_ctrl.bytesPerActivate::samples        53909                       # Bytes accessed per row activation
system.mem_ctrl.bytesPerActivate::mean     470.119646                       # Bytes accessed per row activation
system.mem_ctrl.bytesPerActivate::gmean    443.736484                       # Bytes accessed per row activation
system.mem_ctrl.bytesPerActivate::stdev    109.593339                       # Bytes accessed per row activation
system.mem_ctrl.bytesPerActivate::0-127          1094      2.03%      2.03% # Bytes accessed per row activation
system.mem_ctrl.bytesPerActivate::128-255         2973      5.51%      7.54% # Bytes accessed per row activation
system.mem_ctrl.bytesPerActivate::256-383         1492      2.77%     10.31% # Bytes accessed per row activation
system.mem_ctrl.bytesPerActivate::384-511         3223      5.98%     16.29% # Bytes accessed per row activation
system.mem_ctrl.bytesPerActivate::512-639        45112     83.68%     99.97% # Bytes accessed per row activation
system.mem_ctrl.bytesPerActivate::640-767            4      0.01%     99.98% # Bytes accessed per row activation
system.mem_ctrl.bytesPerActivate::768-895            4      0.01%     99.99% # Bytes accessed per row activation
system.mem_ctrl.bytesPerActivate::896-1023            4      0.01%     99.99% # Bytes accessed per row activation
system.mem_ctrl.bytesPerActivate::1024-1151            3      0.01%    100.00% # Bytes accessed per row activation
system.mem_ctrl.bytesPerActivate::total         53909                       # Bytes accessed per row activation
system.mem_ctrl.rdPerTurnAround::samples        12349                       # Reads before turning the bus around for writes
system.mem_ctrl.rdPerTurnAround::mean       16.072880                       # Reads before turning the bus around for writes
system.mem_ctrl.rdPerTurnAround::gmean      16.005699                       # Reads before turning the bus around for writes
system.mem_ctrl.rdPerTurnAround::stdev       8.044964                       # Reads before turning the bus around for writes
system.mem_ctrl.rdPerTurnAround::0-31           12348     99.99%     99.99% # Reads before turning the bus around for writes
system.mem_ctrl.rdPerTurnAround::896-927            1      0.01%    100.00% # Reads before turning the bus around for writes
system.mem_ctrl.rdPerTurnAround::total          12349                       # Reads before turning the bus around for writes
system.mem_ctrl.wrPerTurnAround::samples        12349                       # Writes before turning the bus around for reads
system.mem_ctrl.wrPerTurnAround::mean       16.000486                       # Writes before turning the bus around for reads
system.mem_ctrl.wrPerTurnAround::gmean      16.000445                       # Writes before turning the bus around for reads
system.mem_ctrl.wrPerTurnAround::stdev       0.038177                       # Writes before turning the bus around for reads
system.mem_ctrl.wrPerTurnAround::16             12347     99.98%     99.98% # Writes before turning the bus around for reads
system.mem_ctrl.wrPerTurnAround::19                 2      0.02%    100.00% # Writes before turning the bus around for reads
system.mem_ctrl.wrPerTurnAround::total          12349                       # Writes before turning the bus around for reads
system.mem_ctrl.bytesReadDRAM                12703808                       # Total number of bytes read from DRAM
system.mem_ctrl.bytesReadWrQ                        0                       # Total number of bytes read from write queue
system.mem_ctrl.bytesWritten                 12645760                       # Total number of bytes written to DRAM
system.mem_ctrl.bytesReadSys                 12703808                       # Total read bytes from the system interface side
system.mem_ctrl.bytesWrittenSys              12647680                       # Total written bytes from the system interface side
system.mem_ctrl.avgRdBW                        687.00                       # Average DRAM read bandwidth in MiByte/s
system.mem_ctrl.avgWrBW                        683.86                       # Average achieved write bandwidth in MiByte/s
system.mem_ctrl.avgRdBWSys                     687.00                       # Average system read bandwidth in MiByte/s
system.mem_ctrl.avgWrBWSys                     683.96                       # Average system write bandwidth in MiByte/s
system.mem_ctrl.peakBW                       12800.00                       # Theoretical peak bandwidth in MiByte/s
system.mem_ctrl.busUtil                         10.71                       # Data bus utilization in percentage
system.mem_ctrl.busUtilRead                      5.37                       # Data bus utilization in percentage for reads
system.mem_ctrl.busUtilWrite                     5.34                       # Data bus utilization in percentage for writes
system.mem_ctrl.totGap                    18491692000                       # Total gap between requests
system.mem_ctrl.avgGap                       46682.40                       # Average gap between requests
system.mem_ctrl.masterReadBytes::.cpu.inst        27072                       # Per-master bytes read from memory
system.mem_ctrl.masterReadBytes::.cpu.data     12676736                       # Per-master bytes read from memory
system.mem_ctrl.masterWriteBytes::.writebacks     12645760                       # Per-master bytes write to memory
system.mem_ctrl.masterReadRate::.cpu.inst 1464005.168145903852                       # Per-master bytes read from memory rate (Bytes/sec)
system.mem_ctrl.masterReadRate::.cpu.data 685535129.256103396416                       # Per-master bytes read from memory rate (Bytes/sec)
system.mem_ctrl.masterWriteRate::.writebacks 683860002.775293469429                       # Per-master bytes write to memory rate (Bytes/sec)
system.mem_ctrl.masterReadAccesses::.cpu.inst          423                       # Per-master read serviced memory accesses
system.mem_ctrl.masterReadAccesses::.cpu.data       198074                       # Per-master read serviced memory accesses
system.mem_ctrl.masterWriteAccesses::.writebacks       197620                       # Per-master write serviced memory accesses
system.mem_ctrl.masterReadTotalLat::.cpu.inst     11200500                       # Per-master read total memory access latency
system.mem_ctrl.masterReadTotalLat::.cpu.data   5591894750                       # Per-master read total memory access latency
system.mem_ctrl.masterWriteTotalLat::.writebacks 456049388000                       # Per-master write total memory access latency
system.mem_ctrl.masterReadAvgLat::.cpu.inst     26478.72                       # Per-master read average memory access latency
system.mem_ctrl.masterReadAvgLat::.cpu.data     28231.34                       # Per-master read average memory access latency
system.mem_ctrl.masterWriteAvgLat::.writebacks   2307708.67                       # Per-master write average memory access latency
system.mem_ctrl.pageHitRate                     86.38                       # Row buffer hit rate, read and write combined
system.mem_ctrl.rank1.actEnergy             192094560                       # Energy for activate commands per rank (pJ)
system.mem_ctrl.rank1.preEnergy             102070320                       # Energy for precharge commands per rank (pJ)
system.mem_ctrl.rank1.readEnergy            708145200                       # Energy for read commands per rank (pJ)
system.mem_ctrl.rank1.writeEnergy           515829960                       # Energy for write commands per rank (pJ)
system.mem_ctrl.rank1.refreshEnergy      1459155360.000000                       # Energy for refresh commands per rank (pJ)
system.mem_ctrl.rank1.actBackEnergy        7673102310                       # Energy for active background per rank (pJ)
system.mem_ctrl.rank1.preBackEnergy         639267840                       # Energy for precharge background per rank (pJ)
system.mem_ctrl.rank1.actPowerDownEnergy            0                       # Energy for active power-down per rank (pJ)
system.mem_ctrl.rank1.prePowerDownEnergy            0                       # Energy for precharge power-down per rank (pJ)
system.mem_ctrl.rank1.selfRefreshEnergy             0                       # Energy for self refresh per rank (pJ)
system.mem_ctrl.rank1.totalEnergy         11289665550                       # Total energy per rank (pJ)
system.mem_ctrl.rank1.averagePower         610.524849                       # Core power per rank (mW)
system.mem_ctrl.rank1.totalIdleTime                 0                       # Total Idle time Per DRAM Rank
system.mem_ctrl.rank1.memoryStateTime::IDLE   1598934250                       # Time in different power states
system.mem_ctrl.rank1.memoryStateTime::REF    617240000                       # Time in different power states
system.mem_ctrl.rank1.memoryStateTime::SREF            0                       # Time in different power states
system.mem_ctrl.rank1.memoryStateTime::PRE_PDN            0                       # Time in different power states
system.mem_ctrl.rank1.memoryStateTime::ACT  16275563750                       # Time in different power states
system.mem_ctrl.rank1.memoryStateTime::ACT_PDN            0                       # Time in different power states
system.mem_ctrl.rank0.actEnergy             192908520                       # Energy for activate commands per rank (pJ)
system.mem_ctrl.rank0.preEnergy             102514335                       # Energy for precharge commands per rank (pJ)
system.mem_ctrl.rank0.readEnergy            709123380                       # Energy for read commands per rank (pJ)
system.mem_ctrl.rank0.writeEnergy           515589840                       # Energy for write commands per rank (pJ)
system.mem_ctrl.rank0.refreshEnergy      1459155360.000000                       # Energy for refresh commands per rank (pJ)
system.mem_ctrl.rank0.actBackEnergy        7680520290                       # Energy for active background per rank (pJ)
system.mem_ctrl.rank0.preBackEnergy         633021120                       # Energy for precharge background per rank (pJ)
system.mem_ctrl.rank0.actPowerDownEnergy            0                       # Energy for active power-down per rank (pJ)
system.mem_ctrl.rank0.prePowerDownEnergy            0                       # Energy for precharge power-down per rank (pJ)
system.mem_ctrl.rank0.selfRefreshEnergy             0                       # Energy for self refresh per rank (pJ)
system.mem_ctrl.rank0.totalEnergy         11292832845                       # Total energy per rank (pJ)
system.mem_ctrl.rank0.averagePower         610.696131                       # Core power per rank (mW)
system.mem_ctrl.rank0.totalIdleTime                 0                       # Total Idle time Per DRAM Rank
system.mem_ctrl.rank0.memoryStateTime::IDLE   1582653500                       # Time in different power states
system.mem_ctrl.rank0.memoryStateTime::REF    617240000                       # Time in different power states
system.mem_ctrl.rank0.memoryStateTime::SREF            0                       # Time in different power states
system.mem_ctrl.rank0.memoryStateTime::PRE_PDN            0                       # Time in different power states
system.mem_ctrl.rank0.memoryStateTime::ACT  16291844500                       # Time in different power states
system.mem_ctrl.rank0.memoryStateTime::ACT_PDN            0                       # Time in different power states
system.mem_ctrl.power_state.pwrStateResidencyTicks::UNDEFINED  18491738000                       # Cumulative time (in ticks) in various power states
system.cache_medium.blocked_cycles::no_mshrs            0                       # number of cycles access was blocked
system.cache_medium.blocked_cycles::no_targets            0                       # number of cycles access was blocked
system.cache_medium.blocked::no_mshrs               0                       # number of cycles access was blocked
system.cache_medium.blocked::no_targets             0                       # number of cycles access was blocked
system.cache_medium.avg_blocked_cycles::no_mshrs          nan                       # average number of cycles each access was blocked
system.cache_medium.avg_blocked_cycles::no_targets          nan                       # average number of cycles each access was blocked
system.cache_medium.replacements                    0                       # number of replacements
system.cache_medium.power_state.pwrStateResidencyTicks::UNDEFINED  18491738000                       # Cumulative time (in ticks) in various power states
system.cache_medium.tags.tagsinuse                  0                       # Cycle average of tags in use
system.cache_medium.tags.total_refs                 0                       # Total number of references to valid blocks.
system.cache_medium.tags.sampled_refs               0                       # Sample count of references to valid blocks.
system.cache_medium.tags.avg_refs                 nan                       # Average number of references to valid blocks.
system.cache_medium.tags.warmup_cycle               0                       # Cycle when the warmup percentage was hit.
system.cache_medium.tags.tag_accesses               0                       # Number of tag accesses
system.cache_medium.tags.data_accesses              0                       # Number of data accesses
system.cache_medium.tags.power_state.pwrStateResidencyTicks::UNDEFINED  18491738000                       # Cumulative time (in ticks) in various power states
system.clk_domain.clock                          1000                       # Clock period in ticks
system.clk_domain.voltage_domain.voltage            1                       # Voltage in Volts
system.dcache.demand_hits::.cpu.data           201712                       # number of demand (read+write) hits
system.dcache.demand_hits::total               201712                       # number of demand (read+write) hits
system.dcache.overall_hits::.cpu.data          201714                       # number of overall hits
system.dcache.overall_hits::total              201714                       # number of overall hits
system.dcache.demand_misses::.cpu.data         198113                       # number of demand (read+write) misses
system.dcache.demand_misses::total             198113                       # number of demand (read+write) misses
system.dcache.overall_misses::.cpu.data        198113                       # number of overall misses
system.dcache.overall_misses::total            198113                       # number of overall misses
system.dcache.demand_miss_latency::.cpu.data  15553765000                       # number of demand (read+write) miss cycles
system.dcache.demand_miss_latency::total  15553765000                       # number of demand (read+write) miss cycles
system.dcache.overall_miss_latency::.cpu.data  15553765000                       # number of overall miss cycles
system.dcache.overall_miss_latency::total  15553765000                       # number of overall miss cycles
system.dcache.demand_accesses::.cpu.data       399825                       # number of demand (read+write) accesses
system.dcache.demand_accesses::total           399825                       # number of demand (read+write) accesses
system.dcache.overall_accesses::.cpu.data       399827                       # number of overall (read+write) accesses
system.dcache.overall_accesses::total          399827                       # number of overall (read+write) accesses
system.dcache.demand_miss_rate::.cpu.data     0.495499                       # miss rate for demand accesses
system.dcache.demand_miss_rate::total        0.495499                       # miss rate for demand accesses
system.dcache.overall_miss_rate::.cpu.data     0.495497                       # miss rate for overall accesses
system.dcache.overall_miss_rate::total       0.495497                       # miss rate for overall accesses
system.dcache.demand_avg_miss_latency::.cpu.data 78509.562724                       # average overall miss latency
system.dcache.demand_avg_miss_latency::total 78509.562724                       # average overall miss latency
system.dcache.overall_avg_miss_latency::.cpu.data 78509.562724                       # average overall miss latency
system.dcache.overall_avg_miss_latency::total 78509.562724                       # average overall miss latency
system.dcache.blocked_cycles::no_mshrs              0                       # number of cycles access was blocked
system.dcache.blocked_cycles::no_targets            0                       # number of cycles access was blocked
system.dcache.blocked::no_mshrs                     0                       # number of cycles access was blocked
system.dcache.blocked::no_targets                   0                       # number of cycles access was blocked
system.dcache.avg_blocked_cycles::no_mshrs          nan                       # average number of cycles each access was blocked
system.dcache.avg_blocked_cycles::no_targets          nan                       # average number of cycles each access was blocked
system.dcache.writebacks::.writebacks          197933                       # number of writebacks
system.dcache.writebacks::total                197933                       # number of writebacks
system.dcache.demand_mshr_misses::.cpu.data       198113                       # number of demand (read+write) MSHR misses
system.dcache.demand_mshr_misses::total        198113                       # number of demand (read+write) MSHR misses
system.dcache.overall_mshr_misses::.cpu.data       198113                       # number of overall MSHR misses
system.dcache.overall_mshr_misses::total       198113                       # number of overall MSHR misses
system.dcache.demand_mshr_miss_latency::.cpu.data  15157541000                       # number of demand (read+write) MSHR miss cycles
system.dcache.demand_mshr_miss_latency::total  15157541000                       # number of demand (read+write) MSHR miss cycles
system.dcache.overall_mshr_miss_latency::.cpu.data  15157541000                       # number of overall MSHR miss cycles
system.dcache.overall_mshr_miss_latency::total  15157541000                       # number of overall MSHR miss cycles
system.dcache.demand_mshr_miss_rate::.cpu.data     0.495499                       # mshr miss rate for demand accesses
system.dcache.demand_mshr_miss_rate::total     0.495499                       # mshr miss rate for demand accesses
system.dcache.overall_mshr_miss_rate::.cpu.data     0.495497                       # mshr miss rate for overall accesses
[...]
system.dcache.tags.age_task_id_blocks_1024::2          115                       # Occupied blocks per task id
system.dcache.tags.age_task_id_blocks_1024::3          135                       # Occupied blocks per task id
system.dcache.tags.occ_task_id_percent::1024            1                       # Percentage of cache occupancy per task id
system.dcache.tags.tag_accesses               2589393                       # Number of tag accesses
system.dcache.tags.data_accesses              2589393                       # Number of data accesses
system.dcache.tags.power_state.pwrStateResidencyTicks::UNDEFINED  62782178000                       # Cumulative time (in ticks) in various power states
system.cache_large.blocked_cycles::no_mshrs            0                       # number of cycles access was blocked
system.cache_large.blocked_cycles::no_targets            0                       # number of cycles access was blocked
system.cache_large.blocked::no_mshrs                0                       # number of cycles access was blocked
system.cache_large.blocked::no_targets              0                       # number of cycles access was blocked
system.cache_large.avg_blocked_cycles::no_mshrs          nan                       # average number of cycles each access was blocked
system.cache_large.avg_blocked_cycles::no_targets          nan                       # average number of cycles each access was blocked
system.cache_large.replacements                     0                       # number of replacements
system.cache_large.power_state.pwrStateResidencyTicks::UNDEFINED  62782178000                       # Cumulative time (in ticks) in various power states
system.cache_large.tags.tagsinuse                   0                       # Cycle average of tags in use
system.cache_large.tags.total_refs                  0                       # Total number of references to valid blocks.
system.cache_large.tags.sampled_refs                0                       # Sample count of references to valid blocks.
system.cache_large.tags.avg_refs                  nan                       # Average number of references to valid blocks.
system.cache_large.tags.warmup_cycle                0                       # Cycle when the warmup percentage was hit.
system.cache_large.tags.tag_accesses                0                       # Number of tag accesses
system.cache_large.tags.data_accesses               0                       # Number of data accesses
system.cache_large.tags.power_state.pwrStateResidencyTicks::UNDEFINED  62782178000                       # Cumulative time (in ticks) in various power states
system.l2cache.demand_hits::.cpu.inst              45                       # number of demand (read+write) hits
system.l2cache.demand_hits::.cpu.data            5432                       # number of demand (read+write) hits
system.l2cache.demand_hits::total                5477                       # number of demand (read+write) hits
system.l2cache.overall_hits::.cpu.inst             45                       # number of overall hits
system.l2cache.overall_hits::.cpu.data           5432                       # number of overall hits
system.l2cache.overall_hits::total               5477                       # number of overall hits
system.l2cache.demand_misses::.cpu.inst          3369                       # number of demand (read+write) misses
system.l2cache.demand_misses::.cpu.data        526629                       # number of demand (read+write) misses
system.l2cache.demand_misses::total            529998                       # number of demand (read+write) misses
system.l2cache.overall_misses::.cpu.inst         3369                       # number of overall misses
system.l2cache.overall_misses::.cpu.data       526629                       # number of overall misses
system.l2cache.overall_misses::total           529998                       # number of overall misses
system.l2cache.demand_miss_latency::.cpu.inst    104190000                       # number of demand (read+write) miss cycles
system.l2cache.demand_miss_latency::.cpu.data  38019737000                       # number of demand (read+write) miss cycles
system.l2cache.demand_miss_latency::total  38123927000                       # number of demand (read+write) miss cycles
system.l2cache.overall_miss_latency::.cpu.inst    104190000                       # number of overall miss cycles
system.l2cache.overall_miss_latency::.cpu.data  38019737000                       # number of overall miss cycles
system.l2cache.overall_miss_latency::total  38123927000                       # number of overall miss cycles
system.l2cache.demand_accesses::.cpu.inst         3414                       # number of demand (read+write) accesses
system.l2cache.demand_accesses::.cpu.data       532061                       # number of demand (read+write) accesses
system.l2cache.demand_accesses::total          535475                       # number of demand (read+write) accesses
system.l2cache.overall_accesses::.cpu.inst         3414                       # number of overall (read+write) accesses
system.l2cache.overall_accesses::.cpu.data       532061                       # number of overall (read+write) accesses
system.l2cache.overall_accesses::total         535475                       # number of overall (read+write) accesses
system.l2cache.demand_miss_rate::.cpu.inst     0.986819                       # miss rate for demand accesses
system.l2cache.demand_miss_rate::.cpu.data     0.989791                       # miss rate for demand accesses
system.l2cache.demand_miss_rate::total       0.989772                       # miss rate for demand accesses
system.l2cache.overall_miss_rate::.cpu.inst     0.986819                       # miss rate for overall accesses
system.l2cache.overall_miss_rate::.cpu.data     0.989791                       # miss rate for overall accesses
system.l2cache.overall_miss_rate::total      0.989772                       # miss rate for overall accesses
system.l2cache.demand_avg_miss_latency::.cpu.inst 30926.090828                       # average overall miss latency
system.l2cache.demand_avg_miss_latency::.cpu.data 72194.537331                       # average overall miss latency
system.l2cache.demand_avg_miss_latency::total 71932.209178                       # average overall miss latency
system.l2cache.overall_avg_miss_latency::.cpu.inst 30926.090828                       # average overall miss latency
system.l2cache.overall_avg_miss_latency::.cpu.data 72194.537331                       # average overall miss latency
system.l2cache.overall_avg_miss_latency::total 71932.209178                       # average overall miss latency
system.l2cache.blocked_cycles::no_mshrs             0                       # number of cycles access was blocked
system.l2cache.blocked_cycles::no_targets            0                       # number of cycles access was blocked
system.l2cache.blocked::no_mshrs                    0                       # number of cycles access was blocked
system.l2cache.blocked::no_targets                  0                       # number of cycles access was blocked
system.l2cache.avg_blocked_cycles::no_mshrs          nan                       # average number of cycles each access was blocked
system.l2cache.avg_blocked_cycles::no_targets          nan                       # average number of cycles each access was blocked
system.l2cache.writebacks::.writebacks         523926                       # number of writebacks
system.l2cache.writebacks::total               523926                       # number of writebacks
system.l2cache.demand_mshr_misses::.cpu.inst         3369                       # number of demand (read+write) MSHR misses
system.l2cache.demand_mshr_misses::.cpu.data       526629                       # number of demand (read+write) MSHR misses
system.l2cache.demand_mshr_misses::total       529998                       # number of demand (read+write) MSHR misses
system.l2cache.overall_mshr_misses::.cpu.inst         3369                       # number of overall MSHR misses
system.l2cache.overall_mshr_misses::.cpu.data       526629                       # number of overall MSHR misses
system.l2cache.overall_mshr_misses::total       529998                       # number of overall MSHR misses
system.l2cache.demand_mshr_miss_latency::.cpu.inst     97452000                       # number of demand (read+write) MSHR miss cycles
system.l2cache.demand_mshr_miss_latency::.cpu.data  36966479000                       # number of demand (read+write) MSHR miss cycles
system.l2cache.demand_mshr_miss_latency::total  37063931000                       # number of demand (read+write) MSHR miss cycles
system.l2cache.overall_mshr_miss_latency::.cpu.inst     97452000                       # number of overall MSHR miss cycles
system.l2cache.overall_mshr_miss_latency::.cpu.data  36966479000                       # number of overall MSHR miss cycles
system.l2cache.overall_mshr_miss_latency::total  37063931000                       # number of overall MSHR miss cycles
system.l2cache.demand_mshr_miss_rate::.cpu.inst     0.986819                       # mshr miss rate for demand accesses
system.l2cache.demand_mshr_miss_rate::.cpu.data     0.989791                       # mshr miss rate for demand accesses
system.l2cache.demand_mshr_miss_rate::total     0.989772                       # mshr miss rate for demand accesses
system.l2cache.overall_mshr_miss_rate::.cpu.inst     0.986819                       # mshr miss rate for overall accesses
system.l2cache.overall_mshr_miss_rate::.cpu.data     0.989791                       # mshr miss rate for overall accesses
system.l2cache.overall_mshr_miss_rate::total     0.989772                       # mshr miss rate for overall accesses
system.l2cache.demand_avg_mshr_miss_latency::.cpu.inst 28926.090828                       # average overall mshr miss latency
system.l2cache.demand_avg_mshr_miss_latency::.cpu.data 70194.537331                       # average overall mshr miss latency
system.l2cache.demand_avg_mshr_miss_latency::total 69932.209178                       # average overall mshr miss latency
system.l2cache.overall_avg_mshr_miss_latency::.cpu.inst 28926.090828                       # average overall mshr miss latency
system.l2cache.overall_avg_mshr_miss_latency::.cpu.data 70194.537331                       # average overall mshr miss latency
system.l2cache.overall_avg_mshr_miss_latency::total 69932.209178                       # average overall mshr miss latency
system.l2cache.replacements                    532318                       # number of replacements
system.l2cache.ReadReq_hits::.cpu.inst             45                       # number of ReadReq hits
system.l2cache.ReadReq_hits::.cpu.data           5432                       # number of ReadReq hits
system.l2cache.ReadReq_hits::total               5477                       # number of ReadReq hits
system.l2cache.ReadReq_misses::.cpu.inst         3369                       # number of ReadReq misses
system.l2cache.ReadReq_misses::.cpu.data       526629                       # number of ReadReq misses
system.l2cache.ReadReq_misses::total           529998                       # number of ReadReq misses
system.l2cache.ReadReq_miss_latency::.cpu.inst    104190000                       # number of ReadReq miss cycles
system.l2cache.ReadReq_miss_latency::.cpu.data  38019737000                       # number of ReadReq miss cycles
system.l2cache.ReadReq_miss_latency::total  38123927000                       # number of ReadReq miss cycles
system.l2cache.ReadReq_accesses::.cpu.inst         3414                       # number of ReadReq accesses(hits+misses)
system.l2cache.ReadReq_accesses::.cpu.data       532061                       # number of ReadReq accesses(hits+misses)
system.l2cache.ReadReq_accesses::total         535475                       # number of ReadReq accesses(hits+misses)
system.l2cache.ReadReq_miss_rate::.cpu.inst     0.986819                       # miss rate for ReadReq accesses
system.l2cache.ReadReq_miss_rate::.cpu.data     0.989791                       # miss rate for ReadReq accesses
system.l2cache.ReadReq_miss_rate::total      0.989772                       # miss rate for ReadReq accesses
system.l2cache.ReadReq_avg_miss_latency::.cpu.inst 30926.090828                       # average ReadReq miss latency
system.l2cache.ReadReq_avg_miss_latency::.cpu.data 72194.537331                       # average ReadReq miss latency
system.l2cache.ReadReq_avg_miss_latency::total 71932.209178                       # average ReadReq miss latency
system.l2cache.ReadReq_mshr_misses::.cpu.inst         3369                       # number of ReadReq MSHR misses
system.l2cache.ReadReq_mshr_misses::.cpu.data       526629                       # number of ReadReq MSHR misses
system.l2cache.ReadReq_mshr_misses::total       529998                       # number of ReadReq MSHR misses
system.l2cache.ReadReq_mshr_miss_latency::.cpu.inst     97452000                       # number of ReadReq MSHR miss cycles
system.l2cache.ReadReq_mshr_miss_latency::.cpu.data  36966479000                       # number of ReadReq MSHR miss cycles
system.l2cache.ReadReq_mshr_miss_latency::total  37063931000                       # number of ReadReq MSHR miss cycles
system.l2cache.ReadReq_mshr_miss_rate::.cpu.inst     0.986819                       # mshr miss rate for ReadReq accesses
system.l2cache.ReadReq_mshr_miss_rate::.cpu.data     0.989791                       # mshr miss rate for ReadReq accesses
system.l2cache.ReadReq_mshr_miss_rate::total     0.989772                       # mshr miss rate for ReadReq accesses
system.l2cache.ReadReq_avg_mshr_miss_latency::.cpu.inst 28926.090828                       # average ReadReq mshr miss latency
system.l2cache.ReadReq_avg_mshr_miss_latency::.cpu.data 70194.537331                       # average ReadReq mshr miss latency
system.l2cache.ReadReq_avg_mshr_miss_latency::total 69932.209178                       # average ReadReq mshr miss latency
system.l2cache.WritebackDirty_hits::.writebacks       526327                       # number of WritebackDirty hits
system.l2cache.WritebackDirty_hits::total       526327                       # number of WritebackDirty hits
system.l2cache.WritebackDirty_accesses::.writebacks       526327                       # number of WritebackDirty accesses(hits+misses)
system.l2cache.WritebackDirty_accesses::total       526327                       # number of WritebackDirty accesses(hits+misses)
system.l2cache.power_state.pwrStateResidencyTicks::UNDEFINED  62782178000                       # Cumulative time (in ticks) in various power states
system.l2cache.tags.tagsinuse              419.955011                       # Cycle average of tags in use
system.l2cache.tags.total_refs                1061802                       # Total number of references to valid blocks.
system.l2cache.tags.sampled_refs               532830                       # Sample count of references to valid blocks.
system.l2cache.tags.avg_refs                 1.992759                       # Average number of references to valid blocks.
system.l2cache.tags.warmup_cycle                78000                       # Cycle when the warmup percentage was hit.
system.l2cache.tags.occ_blocks::.writebacks    47.346324                       # Average occupied blocks per requestor
system.l2cache.tags.occ_blocks::.cpu.inst   212.071265                       # Average occupied blocks per requestor
system.l2cache.tags.occ_blocks::.cpu.data   160.537422                       # Average occupied blocks per requestor
system.l2cache.tags.occ_percent::.writebacks     0.092473                       # Average percentage of cache occupancy
system.l2cache.tags.occ_percent::.cpu.inst     0.414202                       # Average percentage of cache occupancy
system.l2cache.tags.occ_percent::.cpu.data     0.313550                       # Average percentage of cache occupancy
system.l2cache.tags.occ_percent::total       0.820225                       # Average percentage of cache occupancy
system.l2cache.tags.occ_task_id_blocks::1024          512                       # Occupied blocks per task id
system.l2cache.tags.age_task_id_blocks_1024::0            1                       # Occupied blocks per task id
system.l2cache.tags.age_task_id_blocks_1024::1            7                       # Occupied blocks per task id
system.l2cache.tags.age_task_id_blocks_1024::2          139                       # Occupied blocks per task id
system.l2cache.tags.age_task_id_blocks_1024::3          365                       # Occupied blocks per task id
system.l2cache.tags.occ_task_id_percent::1024            1                       # Percentage of cache occupancy per task id
system.l2cache.tags.tag_accesses              1594632                       # Number of tag accesses
system.l2cache.tags.data_accesses             1594632                       # Number of data accesses
system.l2cache.tags.power_state.pwrStateResidencyTicks::UNDEFINED  62782178000                       # Cumulative time (in ticks) in various power states
system.l2bar.trans_dist::ReadReq               535475                       # Transaction distribution
system.l2bar.trans_dist::ReadResp              535475                       # Transaction distribution
system.l2bar.trans_dist::WritebackDirty        526327                       # Transaction distribution
system.l2bar.pkt_count_system.dcache.mem_side::system.l2cache.cpu_side      1590449                       # Packet count per connected master and slave (bytes)
system.l2bar.pkt_count_system.icache.mem_side::system.l2cache.cpu_side         6828                       # Packet count per connected master and slave (bytes)
system.l2bar.pkt_count::total                 1597277                       # Packet count per connected master and slave (bytes)
system.l2bar.pkt_size_system.dcache.mem_side::system.l2cache.cpu_side     67736832                       # Cumulative packet size per connected master and slave (bytes)
system.l2bar.pkt_size_system.icache.mem_side::system.l2cache.cpu_side       218496                       # Cumulative packet size per connected master and slave (bytes)
system.l2bar.pkt_size::total                 67955328                       # Cumulative packet size per connected master and slave (bytes)
system.l2bar.respLayer1.occupancy            17070000                       # Layer occupancy (ticks)
system.l2bar.respLayer1.utilization               0.0                       # Layer utilization (%)
system.l2bar.reqLayer0.occupancy           3167110000                       # Layer occupancy (ticks)
system.l2bar.reqLayer0.utilization                5.0                       # Layer utilization (%)
system.l2bar.respLayer0.occupancy          2660305000                       # Layer occupancy (ticks)
system.l2bar.respLayer0.utilization               4.2                       # Layer utilization (%)
system.l2bar.power_state.pwrStateResidencyTicks::UNDEFINED  62782178000                       # Cumulative time (in ticks) in various power states
system.cpu.dtb.walker.power_state.pwrStateResidencyTicks::UNDEFINED  62782178000                       # Cumulative time (in ticks) in various power states
system.cpu.interrupts.clk_domain.clock          16000                       # Clock period in ticks
system.cpu.itb.walker.power_state.pwrStateResidencyTicks::UNDEFINED  62782178000                       # Cumulative time (in ticks) in various power states
system.cpu.power_state.numTransitions               1                       # Number of power state transitions
system.cpu.power_state.pwrStateResidencyTicks::ON  62782178000                       # Cumulative time (in ticks) in various power states

---------- End Simulation Statistics   ----------
