
---------- Begin Simulation Statistics ----------
final_tick                                 4146522000                       # Number of ticks from beginning of simulation (restored from checkpoints and never reset)
host_inst_rate                                  87374                       # Simulator instruction rate (inst/s)
host_mem_usage                               34267532                       # Number of bytes of host memory used
host_op_rate                                   195062                       # Simulator op (including micro ops) rate (op/s)
host_seconds                                    11.45                       # Real time elapsed on the host
host_tick_rate                              362290169                       # Simulator tick rate (ticks/s)
sim_freq                                 1000000000000                       # Frequency of simulated ticks
sim_insts                                     1000002                       # Number of instructions simulated
sim_ops                                       2232530                       # Number of ops (including micro ops) simulated
sim_seconds                                  0.004147                       # Number of seconds simulated
sim_ticks                                  4146522000                       # Number of ticks simulated
system.cpu.Branches                            216962                       # Number of branches fetched
system.cpu.committedInsts                     1000002                       # Number of instructions committed
system.cpu.committedOps                       2232530                       # Number of ops (including micro ops) committed
system.cpu.dtb.rdAccesses                      263485                       # TLB accesses on read requests
system.cpu.dtb.rdMisses                           105                       # TLB misses on read requests
system.cpu.dtb.wrAccesses                       79584                       # TLB accesses on write requests
system.cpu.dtb.wrMisses                           108                       # TLB misses on write requests
system.cpu.idle_fraction                            0                       # Percentage of idle cycles
system.cpu.itb.rdAccesses                           0                       # TLB accesses on read requests
system.cpu.itb.rdMisses                             0                       # TLB misses on read requests
system.cpu.itb.wrAccesses                     1370173                       # TLB accesses on write requests
system.cpu.itb.wrMisses                           419                       # TLB misses on write requests
system.cpu.not_idle_fraction                        1                       # Percentage of non-idle cycles
system.cpu.numCycles                          4146511                       # number of cpu cycles simulated
system.cpu.numWorkItemsCompleted                    0                       # number of work items this cpu completed
system.cpu.numWorkItemsStarted                      0                       # number of work items this cpu started
system.cpu.num_busy_cycles                    4146511                       # Number of busy cycles
system.cpu.num_cc_register_reads              1518798                       # number of times the CC registers were read
system.cpu.num_cc_register_writes              547151                       # number of times the CC registers were written
system.cpu.num_conditional_control_insts       156490                       # number of instructions that are conditional controls
system.cpu.num_fp_alu_accesses                 500168                       # Number of float alu accesses
system.cpu.num_fp_insts                        500168                       # number of float instructions
system.cpu.num_fp_register_reads               894107                       # number of times the floating registers were read
system.cpu.num_fp_register_writes              456038                       # number of times the floating registers were written
system.cpu.num_func_calls                       31544                       # number of times a function call or return occured
system.cpu.num_idle_cycles                          0                       # Number of idle cycles
system.cpu.num_int_alu_accesses               1832042                       # Number of integer alu accesses
system.cpu.num_int_insts                      1832042                       # number of integer instructions
system.cpu.num_int_register_reads             3506430                       # number of times the integer registers were read
system.cpu.num_int_register_writes            1456919                       # number of times the integer registers were written
system.cpu.num_load_insts                      263330                       # Number of load instructions
system.cpu.num_mem_refs                        342902                       # number of memory refs
system.cpu.num_store_insts                      79572                       # Number of store instructions
system.cpu.num_vec_alu_accesses                     0                       # Number of vector alu accesses
system.cpu.num_vec_insts                            0                       # number of vector instructions
system.cpu.num_vec_register_reads                   0                       # number of times the vector registers were read
system.cpu.num_vec_register_writes                  0                       # number of times the vector registers were written
system.cpu.op_class::No_OpClass                 38784      1.74%      1.74% # Class of executed instruction
system.cpu.op_class::IntAlu                   1545608     69.23%     70.97% # Class of executed instruction
system.cpu.op_class::IntMult                      327      0.01%     70.98% # Class of executed instruction
system.cpu.op_class::IntDiv                       861      0.04%     71.02% # Class of executed instruction
system.cpu.op_class::FloatAdd                    1833      0.08%     71.10% # Class of executed instruction
system.cpu.op_class::FloatCmp                       0      0.00%     71.10% # Class of executed instruction
system.cpu.op_class::FloatCvt                       0      0.00%     71.10% # Class of executed instruction
system.cpu.op_class::FloatMult                      0      0.00%     71.10% # Class of executed instruction
system.cpu.op_class::FloatMultAcc                   0      0.00%     71.10% # Class of executed instruction
system.cpu.op_class::FloatDiv                       0      0.00%     71.10% # Class of executed instruction
system.cpu.op_class::FloatMisc                      0      0.00%     71.10% # Class of executed instruction
system.cpu.op_class::FloatSqrt                      0      0.00%     71.10% # Class of executed instruction
system.cpu.op_class::SimdAdd                    18912      0.85%     71.95% # Class of executed instruction
system.cpu.op_class::SimdAddAcc                     0      0.00%     71.95% # Class of executed instruction
system.cpu.op_class::SimdAlu                   138067      6.18%     78.13% # Class of executed instruction
system.cpu.op_class::SimdCmp                       36      0.00%     78.14% # Class of executed instruction
system.cpu.op_class::SimdCvt                   115436      5.17%     83.31% # Class of executed instruction
system.cpu.op_class::SimdMisc                   23832      1.07%     84.37% # Class of executed instruction
system.cpu.op_class::SimdMult                       0      0.00%     84.37% # Class of executed instruction
system.cpu.op_class::SimdMultAcc                    0      0.00%     84.37% # Class of executed instruction
system.cpu.op_class::SimdShift                   4878      0.22%     84.59% # Class of executed instruction
system.cpu.op_class::SimdShiftAcc                   0      0.00%     84.59% # Class of executed instruction
system.cpu.op_class::SimdDiv                        0      0.00%     84.59% # Class of executed instruction
system.cpu.op_class::SimdSqrt                       0      0.00%     84.59% # Class of executed instruction
system.cpu.op_class::SimdFloatAdd                 152      0.01%     84.60% # Class of executed instruction
system.cpu.op_class::SimdFloatAlu                   0      0.00%     84.60% # Class of executed instruction
system.cpu.op_class::SimdFloatCmp                   0      0.00%     84.60% # Class of executed instruction
system.cpu.op_class::SimdFloatCvt                 725      0.03%     84.63% # Class of executed instruction
system.cpu.op_class::SimdFloatDiv                 104      0.00%     84.64% # Class of executed instruction
system.cpu.op_class::SimdFloatMisc                  0      0.00%     84.64% # Class of executed instruction
system.cpu.op_class::SimdFloatMult                104      0.00%     84.64% # Class of executed instruction
system.cpu.op_class::SimdFloatMultAcc               0      0.00%     84.64% # Class of executed instruction
system.cpu.op_class::SimdFloatSqrt                  0      0.00%     84.64% # Class of executed instruction
system.cpu.op_class::SimdReduceAdd                  0      0.00%     84.64% # Class of executed instruction
system.cpu.op_class::SimdReduceAlu                  0      0.00%     84.64% # Class of executed instruction
system.cpu.op_class::SimdReduceCmp                  0      0.00%     84.64% # Class of executed instruction
system.cpu.op_class::SimdFloatReduceAdd             0      0.00%     84.64% # Class of executed instruction
system.cpu.op_class::SimdFloatReduceCmp             0      0.00%     84.64% # Class of executed instruction
system.cpu.op_class::SimdAes                        0      0.00%     84.64% # Class of executed instruction
system.cpu.op_class::SimdAesMix                     0      0.00%     84.64% # Class of executed instruction
system.cpu.op_class::SimdSha1Hash                   0      0.00%     84.64% # Class of executed instruction
system.cpu.op_class::SimdSha1Hash2                  0      0.00%     84.64% # Class of executed instruction
system.cpu.op_class::SimdSha256Hash                 0      0.00%     84.64% # Class of executed instruction
system.cpu.op_class::SimdSha256Hash2                0      0.00%     84.64% # Class of executed instruction
system.cpu.op_class::SimdShaSigma2                  0      0.00%     84.64% # Class of executed instruction
system.cpu.op_class::SimdShaSigma3                  0      0.00%     84.64% # Class of executed instruction
system.cpu.op_class::SimdPredAlu                    0      0.00%     84.64% # Class of executed instruction
system.cpu.op_class::MemRead                   166961      7.48%     92.12% # Class of executed instruction
system.cpu.op_class::MemWrite                   56348      2.52%     94.64% # Class of executed instruction
system.cpu.op_class::FloatMemRead               96369      4.32%     98.96% # Class of executed instruction
system.cpu.op_class::FloatMemWrite              23224      1.04%    100.00% # Class of executed instruction
system.cpu.op_class::IprAccess                      0      0.00%    100.00% # Class of executed instruction
system.cpu.op_class::InstPrefetch                   0      0.00%    100.00% # Class of executed instruction
system.cpu.op_class::total                    2232561                       # Class of executed instruction
system.cpu.workload.numSyscalls                    62                       # Number of system calls
system.dynamic_cache.flushTicks                     0                       # Ticks taken to flush
system.dynamic_cache.numFlushes                     0                       # Number of Flushes Taken
system.cache_small.demand_hits::.cpu.inst         6255                       # number of demand (read+write) hits
system.cache_small.demand_hits::.cpu.data         7921                       # number of demand (read+write) hits
system.cache_small.demand_hits::total           14176                       # number of demand (read+write) hits
system.cache_small.overall_hits::.cpu.inst         6255                       # number of overall hits
system.cache_small.overall_hits::.cpu.data         7921                       # number of overall hits
system.cache_small.overall_hits::total          14176                       # number of overall hits
system.cache_small.demand_misses::.cpu.inst         1625                       # number of demand (read+write) misses
system.cache_small.demand_misses::.cpu.data         2457                       # number of demand (read+write) misses
system.cache_small.demand_misses::total          4082                       # number of demand (read+write) misses
system.cache_small.overall_misses::.cpu.inst         1625                       # number of overall misses
system.cache_small.overall_misses::.cpu.data         2457                       # number of overall misses
system.cache_small.overall_misses::total         4082                       # number of overall misses
system.cache_small.demand_miss_latency::.cpu.inst     97523000                       # number of demand (read+write) miss cycles
system.cache_small.demand_miss_latency::.cpu.data    144427000                       # number of demand (read+write) miss cycles
system.cache_small.demand_miss_latency::total    241950000                       # number of demand (read+write) miss cycles
system.cache_small.overall_miss_latency::.cpu.inst     97523000                       # number of overall miss cycles
system.cache_small.overall_miss_latency::.cpu.data    144427000                       # number of overall miss cycles
system.cache_small.overall_miss_latency::total    241950000                       # number of overall miss cycles
system.cache_small.demand_accesses::.cpu.inst         7880                       # number of demand (read+write) accesses
system.cache_small.demand_accesses::.cpu.data        10378                       # number of demand (read+write) accesses
system.cache_small.demand_accesses::total        18258                       # number of demand (read+write) accesses
system.cache_small.overall_accesses::.cpu.inst         7880                       # number of overall (read+write) accesses
system.cache_small.overall_accesses::.cpu.data        10378                       # number of overall (read+write) accesses
system.cache_small.overall_accesses::total        18258                       # number of overall (read+write) accesses
system.cache_small.demand_miss_rate::.cpu.inst     0.206218                       # miss rate for demand accesses
system.cache_small.demand_miss_rate::.cpu.data     0.236751                       # miss rate for demand accesses
system.cache_small.demand_miss_rate::total     0.223573                       # miss rate for demand accesses
system.cache_small.overall_miss_rate::.cpu.inst     0.206218                       # miss rate for overall accesses
system.cache_small.overall_miss_rate::.cpu.data     0.236751                       # miss rate for overall accesses
system.cache_small.overall_miss_rate::total     0.223573                       # miss rate for overall accesses
system.cache_small.demand_avg_miss_latency::.cpu.inst 60014.153846                       # average overall miss latency
system.cache_small.demand_avg_miss_latency::.cpu.data 58781.847782                       # average overall miss latency
system.cache_small.demand_avg_miss_latency::total 59272.415483                       # average overall miss latency
system.cache_small.overall_avg_miss_latency::.cpu.inst 60014.153846                       # average overall miss latency
system.cache_small.overall_avg_miss_latency::.cpu.data 58781.847782                       # average overall miss latency
system.cache_small.overall_avg_miss_latency::total 59272.415483                       # average overall miss latency
system.cache_small.blocked_cycles::no_mshrs            0                       # number of cycles access was blocked
system.cache_small.blocked_cycles::no_targets            0                       # number of cycles access was blocked
system.cache_small.blocked::no_mshrs                0                       # number of cycles access was blocked
system.cache_small.blocked::no_targets              0                       # number of cycles access was blocked
system.cache_small.avg_blocked_cycles::no_mshrs          nan                       # average number of cycles each access was blocked
system.cache_small.avg_blocked_cycles::no_targets          nan                       # average number of cycles each access was blocked
system.cache_small.writebacks::.writebacks           33                       # number of writebacks
system.cache_small.writebacks::total               33                       # number of writebacks
system.cache_small.demand_mshr_misses::.cpu.inst         1625                       # number of demand (read+write) MSHR misses
system.cache_small.demand_mshr_misses::.cpu.data         2457                       # number of demand (read+write) MSHR misses
system.cache_small.demand_mshr_misses::total         4082                       # number of demand (read+write) MSHR misses
system.cache_small.overall_mshr_misses::.cpu.inst         1625                       # number of overall MSHR misses
system.cache_small.overall_mshr_misses::.cpu.data         2457                       # number of overall MSHR misses
system.cache_small.overall_mshr_misses::total         4082                       # number of overall MSHR misses
system.cache_small.demand_mshr_miss_latency::.cpu.inst     94273000                       # number of demand (read+write) MSHR miss cycles
system.cache_small.demand_mshr_miss_latency::.cpu.data    139513000                       # number of demand (read+write) MSHR miss cycles
system.cache_small.demand_mshr_miss_latency::total    233786000                       # number of demand (read+write) MSHR miss cycles
system.cache_small.overall_mshr_miss_latency::.cpu.inst     94273000                       # number of overall MSHR miss cycles
system.cache_small.overall_mshr_miss_latency::.cpu.data    139513000                       # number of overall MSHR miss cycles
system.cache_small.overall_mshr_miss_latency::total    233786000                       # number of overall MSHR miss cycles
system.cache_small.demand_mshr_miss_rate::.cpu.inst     0.206218                       # mshr miss rate for demand accesses
system.cache_small.demand_mshr_miss_rate::.cpu.data     0.236751                       # mshr miss rate for demand accesses
system.cache_small.demand_mshr_miss_rate::total     0.223573                       # mshr miss rate for demand accesses
system.cache_small.overall_mshr_miss_rate::.cpu.inst     0.206218                       # mshr miss rate for overall accesses
system.cache_small.overall_mshr_miss_rate::.cpu.data     0.236751                       # mshr miss rate for overall accesses
system.cache_small.overall_mshr_miss_rate::total     0.223573                       # mshr miss rate for overall accesses
system.cache_small.demand_avg_mshr_miss_latency::.cpu.inst 58014.153846                       # average overall mshr miss latency
system.cache_small.demand_avg_mshr_miss_latency::.cpu.data 56781.847782                       # average overall mshr miss latency
system.cache_small.demand_avg_mshr_miss_latency::total 57272.415483                       # average overall mshr miss latency
system.cache_small.overall_avg_mshr_miss_latency::.cpu.inst 58014.153846                       # average overall mshr miss latency
system.cache_small.overall_avg_mshr_miss_latency::.cpu.data 56781.847782                       # average overall mshr miss latency
system.cache_small.overall_avg_mshr_miss_latency::total 57272.415483                       # average overall mshr miss latency
system.cache_small.replacements                   221                       # number of replacements
system.cache_small.ReadReq_hits::.cpu.inst         6255                       # number of ReadReq hits
system.cache_small.ReadReq_hits::.cpu.data         7921                       # number of ReadReq hits
system.cache_small.ReadReq_hits::total          14176                       # number of ReadReq hits
system.cache_small.ReadReq_misses::.cpu.inst         1625                       # number of ReadReq misses
system.cache_small.ReadReq_misses::.cpu.data         2457                       # number of ReadReq misses
system.cache_small.ReadReq_misses::total         4082                       # number of ReadReq misses
system.cache_small.ReadReq_miss_latency::.cpu.inst     97523000                       # number of ReadReq miss cycles
system.cache_small.ReadReq_miss_latency::.cpu.data    144427000                       # number of ReadReq miss cycles
system.cache_small.ReadReq_miss_latency::total    241950000                       # number of ReadReq miss cycles
system.cache_small.ReadReq_accesses::.cpu.inst         7880                       # number of ReadReq accesses(hits+misses)
system.cache_small.ReadReq_accesses::.cpu.data        10378                       # number of ReadReq accesses(hits+misses)
system.cache_small.ReadReq_accesses::total        18258                       # number of ReadReq accesses(hits+misses)
system.cache_small.ReadReq_miss_rate::.cpu.inst     0.206218                       # miss rate for ReadReq accesses
system.cache_small.ReadReq_miss_rate::.cpu.data     0.236751                       # miss rate for ReadReq accesses
system.cache_small.ReadReq_miss_rate::total     0.223573                       # miss rate for ReadReq accesses
system.cache_small.ReadReq_avg_miss_latency::.cpu.inst 60014.153846                       # average ReadReq miss latency
system.cache_small.ReadReq_avg_miss_latency::.cpu.data 58781.847782                       # average ReadReq miss latency
system.cache_small.ReadReq_avg_miss_latency::total 59272.415483                       # average ReadReq miss latency
system.cache_small.ReadReq_mshr_misses::.cpu.inst         1625                       # number of ReadReq MSHR misses
system.cache_small.ReadReq_mshr_misses::.cpu.data         2457                       # number of ReadReq MSHR misses
system.cache_small.ReadReq_mshr_misses::total         4082                       # number of ReadReq MSHR misses
system.cache_small.ReadReq_mshr_miss_latency::.cpu.inst     94273000                       # number of ReadReq MSHR miss cycles
system.cache_small.ReadReq_mshr_miss_latency::.cpu.data    139513000                       # number of ReadReq MSHR miss cycles
system.cache_small.ReadReq_mshr_miss_latency::total    233786000                       # number of ReadReq MSHR miss cycles
system.cache_small.ReadReq_mshr_miss_rate::.cpu.inst     0.206218                       # mshr miss rate for ReadReq accesses
system.cache_small.ReadReq_mshr_miss_rate::.cpu.data     0.236751                       # mshr miss rate for ReadReq accesses
system.cache_small.ReadReq_mshr_miss_rate::total     0.223573                       # mshr miss rate for ReadReq accesses
system.cache_small.ReadReq_avg_mshr_miss_latency::.cpu.inst 58014.153846                       # average ReadReq mshr miss latency
system.cache_small.ReadReq_avg_mshr_miss_latency::.cpu.data 56781.847782                       # average ReadReq mshr miss latency
system.cache_small.ReadReq_avg_mshr_miss_latency::total 57272.415483                       # average ReadReq mshr miss latency
system.cache_small.WritebackDirty_hits::.writebacks         4389                       # number of WritebackDirty hits
system.cache_small.WritebackDirty_hits::total         4389                       # number of WritebackDirty hits
system.cache_small.WritebackDirty_accesses::.writebacks         4389                       # number of WritebackDirty accesses(hits+misses)
system.cache_small.WritebackDirty_accesses::total         4389                       # number of WritebackDirty accesses(hits+misses)
system.cache_small.power_state.pwrStateResidencyTicks::UNDEFINED   4146522000                       # Cumulative time (in ticks) in various power states
system.cache_small.tags.tagsinuse         2689.705950                       # Cycle average of tags in use
system.cache_small.tags.total_refs                456                       # Total number of references to valid blocks.
system.cache_small.tags.sampled_refs              221                       # Sample count of references to valid blocks.
system.cache_small.tags.avg_refs             2.063348                       # Average number of references to valid blocks.
system.cache_small.tags.warmup_cycle            76000                       # Cycle when the warmup percentage was hit.
system.cache_small.tags.occ_blocks::.writebacks     1.583091                       # Average occupied blocks per requestor
system.cache_small.tags.occ_blocks::.cpu.inst  1147.003556                       # Average occupied blocks per requestor
system.cache_small.tags.occ_blocks::.cpu.data  1541.119304                       # Average occupied blocks per requestor
system.cache_small.tags.occ_percent::.writebacks     0.000048                       # Average percentage of cache occupancy
system.cache_small.tags.occ_percent::.cpu.inst     0.035004                       # Average percentage of cache occupancy
system.cache_small.tags.occ_percent::.cpu.data     0.047031                       # Average percentage of cache occupancy
system.cache_small.tags.occ_percent::total     0.082083                       # Average percentage of cache occupancy
system.cache_small.tags.occ_task_id_blocks::1024         3870                       # Occupied blocks per task id
system.cache_small.tags.age_task_id_blocks_1024::0            5                       # Occupied blocks per task id
system.cache_small.tags.age_task_id_blocks_1024::1            7                       # Occupied blocks per task id
system.cache_small.tags.age_task_id_blocks_1024::2          635                       # Occupied blocks per task id
system.cache_small.tags.age_task_id_blocks_1024::3         3223                       # Occupied blocks per task id
system.cache_small.tags.occ_task_id_percent::1024     0.118103                       # Percentage of cache occupancy per task id
system.cache_small.tags.tag_accesses            26738                       # Number of tag accesses
system.cache_small.tags.data_accesses           26738                       # Number of data accesses
system.cache_small.tags.power_state.pwrStateResidencyTicks::UNDEFINED   4146522000                       # Cumulative time (in ticks) in various power states
system.icache.demand_hits::.cpu.inst          1356280                       # number of demand (read+write) hits
system.icache.demand_hits::total              1356280                       # number of demand (read+write) hits
system.icache.overall_hits::.cpu.inst         1356280                       # number of overall hits
system.icache.overall_hits::total             1356280                       # number of overall hits
system.icache.demand_misses::.cpu.inst          13893                       # number of demand (read+write) misses
system.icache.demand_misses::total              13893                       # number of demand (read+write) misses
system.icache.overall_misses::.cpu.inst         13893                       # number of overall misses
system.icache.overall_misses::total             13893                       # number of overall misses
system.icache.demand_miss_latency::.cpu.inst    334783000                       # number of demand (read+write) miss cycles
system.icache.demand_miss_latency::total    334783000                       # number of demand (read+write) miss cycles
system.icache.overall_miss_latency::.cpu.inst    334783000                       # number of overall miss cycles
system.icache.overall_miss_latency::total    334783000                       # number of overall miss cycles
system.icache.demand_accesses::.cpu.inst      1370173                       # number of demand (read+write) accesses
system.icache.demand_accesses::total          1370173                       # number of demand (read+write) accesses
system.icache.overall_accesses::.cpu.inst      1370173                       # number of overall (read+write) accesses
system.icache.overall_accesses::total         1370173                       # number of overall (read+write) accesses
system.icache.demand_miss_rate::.cpu.inst     0.010140                       # miss rate for demand accesses
system.icache.demand_miss_rate::total        0.010140                       # miss rate for demand accesses
system.icache.overall_miss_rate::.cpu.inst     0.010140                       # miss rate for overall accesses
system.icache.overall_miss_rate::total       0.010140                       # miss rate for overall accesses
system.icache.demand_avg_miss_latency::.cpu.inst 24097.243216                       # average overall miss latency
system.icache.demand_avg_miss_latency::total 24097.243216                       # average overall miss latency
system.icache.overall_avg_miss_latency::.cpu.inst 24097.243216                       # average overall miss latency
system.icache.overall_avg_miss_latency::total 24097.243216                       # average overall miss latency
system.icache.blocked_cycles::no_mshrs              0                       # number of cycles access was blocked
system.icache.blocked_cycles::no_targets            0                       # number of cycles access was blocked
system.icache.blocked::no_mshrs                     0                       # number of cycles access was blocked
system.icache.blocked::no_targets                   0                       # number of cycles access was blocked
system.icache.avg_blocked_cycles::no_mshrs          nan                       # average number of cycles each access was blocked
system.icache.avg_blocked_cycles::no_targets          nan                       # average number of cycles each access was blocked
system.icache.demand_mshr_misses::.cpu.inst        13893                       # number of demand (read+write) MSHR misses
system.icache.demand_mshr_misses::total         13893                       # number of demand (read+write) MSHR misses
system.icache.overall_mshr_misses::.cpu.inst        13893                       # number of overall MSHR misses
system.icache.overall_mshr_misses::total        13893                       # number of overall MSHR misses
system.icache.demand_mshr_miss_latency::.cpu.inst    306997000                       # number of demand (read+write) MSHR miss cycles
system.icache.demand_mshr_miss_latency::total    306997000                       # number of demand (read+write) MSHR miss cycles
system.icache.overall_mshr_miss_latency::.cpu.inst    306997000                       # number of overall MSHR miss cycles
system.icache.overall_mshr_miss_latency::total    306997000                       # number of overall MSHR miss cycles
system.icache.demand_mshr_miss_rate::.cpu.inst     0.010140                       # mshr miss rate for demand accesses
system.icache.demand_mshr_miss_rate::total     0.010140                       # mshr miss rate for demand accesses
system.icache.overall_mshr_miss_rate::.cpu.inst     0.010140                       # mshr miss rate for overall accesses
system.icache.overall_mshr_miss_rate::total     0.010140                       # mshr miss rate for overall accesses
system.icache.demand_avg_mshr_miss_latency::.cpu.inst 22097.243216                       # average overall mshr miss latency
system.icache.demand_avg_mshr_miss_latency::total 22097.243216                       # average overall mshr miss latency
system.icache.overall_avg_mshr_miss_latency::.cpu.inst 22097.243216                       # average overall mshr miss latency
system.icache.overall_avg_mshr_miss_latency::total 22097.243216                       # average overall mshr miss latency
system.icache.replacements                      13637                       # number of replacements
system.icache.ReadReq_hits::.cpu.inst         1356280                       # number of ReadReq hits
system.icache.ReadReq_hits::total             1356280                       # number of ReadReq hits
system.icache.ReadReq_misses::.cpu.inst         13893                       # number of ReadReq misses
system.icache.ReadReq_misses::total             13893                       # number of ReadReq misses
system.icache.ReadReq_miss_latency::.cpu.inst    334783000                       # number of ReadReq miss cycles
system.icache.ReadReq_miss_latency::total    334783000                       # number of ReadReq miss cycles
system.icache.ReadReq_accesses::.cpu.inst      1370173                       # number of ReadReq accesses(hits+misses)
system.icache.ReadReq_accesses::total         1370173                       # number of ReadReq accesses(hits+misses)
system.icache.ReadReq_miss_rate::.cpu.inst     0.010140                       # miss rate for ReadReq accesses
system.icache.ReadReq_miss_rate::total       0.010140                       # miss rate for ReadReq accesses
system.icache.ReadReq_avg_miss_latency::.cpu.inst 24097.243216                       # average ReadReq miss latency
system.icache.ReadReq_avg_miss_latency::total 24097.243216                       # average ReadReq miss latency
system.icache.ReadReq_mshr_misses::.cpu.inst        13893                       # number of ReadReq MSHR misses
system.icache.ReadReq_mshr_misses::total        13893                       # number of ReadReq MSHR misses
system.icache.ReadReq_mshr_miss_latency::.cpu.inst    306997000                       # number of ReadReq MSHR miss cycles
system.icache.ReadReq_mshr_miss_latency::total    306997000                       # number of ReadReq MSHR miss cycles
system.icache.ReadReq_mshr_miss_rate::.cpu.inst     0.010140                       # mshr miss rate for ReadReq accesses
system.icache.ReadReq_mshr_miss_rate::total     0.010140                       # mshr miss rate for ReadReq accesses
system.icache.ReadReq_avg_mshr_miss_latency::.cpu.inst 22097.243216                       # average ReadReq mshr miss latency
system.icache.ReadReq_avg_mshr_miss_latency::total 22097.243216                       # average ReadReq mshr miss latency
system.icache.power_state.pwrStateResidencyTicks::UNDEFINED   4146522000                       # Cumulative time (in ticks) in various power states
system.icache.tags.tagsinuse               252.165109                       # Cycle average of tags in use
system.icache.tags.total_refs                 1335370                       # Total number of references to valid blocks.
system.icache.tags.sampled_refs                 13637                       # Sample count of references to valid blocks.
system.icache.tags.avg_refs                 97.922564                       # Average number of references to valid blocks.
system.icache.tags.warmup_cycle                 82000                       # Cycle when the warmup percentage was hit.
system.icache.tags.occ_blocks::.cpu.inst   252.165109                       # Average occupied blocks per requestor
system.icache.tags.occ_percent::.cpu.inst     0.985020                       # Average percentage of cache occupancy
system.icache.tags.occ_percent::total        0.985020                       # Average percentage of cache occupancy
system.icache.tags.occ_task_id_blocks::1024          256                       # Occupied blocks per task id
system.icache.tags.age_task_id_blocks_1024::0           16                       # Occupied blocks per task id
system.icache.tags.age_task_id_blocks_1024::1          171                       # Occupied blocks per task id
system.icache.tags.age_task_id_blocks_1024::2           45                       # Occupied blocks per task id
system.icache.tags.age_task_id_blocks_1024::3           24                       # Occupied blocks per task id
system.icache.tags.occ_task_id_percent::1024            1                       # Percentage of cache occupancy per task id
system.icache.tags.tag_accesses               1384066                       # Number of tag accesses
system.icache.tags.data_accesses              1384066                       # Number of data accesses
system.icache.tags.power_state.pwrStateResidencyTicks::UNDEFINED   4146522000                       # Cumulative time (in ticks) in various power states
system.membus.trans_dist::ReadReq                4082                       # Transaction distribution
system.membus.trans_dist::ReadResp               4082                       # Transaction distribution
system.membus.trans_dist::WritebackDirty           33                       # Transaction distribution
system.membus.pkt_count_system.cache_small.mem_side::system.mem_ctrl.port         8197                       # Packet count per connected master and slave (bytes)
system.membus.pkt_count_system.cache_small.mem_side::total         8197                       # Packet count per connected master and slave (bytes)
system.membus.pkt_count::total                   8197                       # Packet count per connected master and slave (bytes)
system.membus.pkt_size_system.cache_small.mem_side::system.mem_ctrl.port       263360                       # Cumulative packet size per connected master and slave (bytes)
system.membus.pkt_size_system.cache_small.mem_side::total       263360                       # Cumulative packet size per connected master and slave (bytes)
system.membus.pkt_size::total                  263360                       # Cumulative packet size per connected master and slave (bytes)
system.membus.reqLayer2.occupancy             4247000                       # Layer occupancy (ticks)
system.membus.reqLayer2.utilization               0.1                       # Layer utilization (%)
system.membus.respLayer1.occupancy           21724750                       # Layer occupancy (ticks)
system.membus.respLayer1.utilization              0.5                       # Layer utilization (%)
system.membus.power_state.pwrStateResidencyTicks::UNDEFINED   4146522000                       # Cumulative time (in ticks) in various power states
system.mem_ctrl.bytes_read::.cpu.inst          104000                       # Number of bytes read from this memory
system.mem_ctrl.bytes_read::.cpu.data          157248                       # Number of bytes read from this memory
system.mem_ctrl.bytes_read::total              261248                       # Number of bytes read from this memory
system.mem_ctrl.bytes_inst_read::.cpu.inst       104000                       # Number of instructions bytes read from this memory
system.mem_ctrl.bytes_inst_read::total         104000                       # Number of instructions bytes read from this memory
system.mem_ctrl.bytes_written::.writebacks         2112                       # Number of bytes written to this memory
system.mem_ctrl.bytes_written::total             2112                       # Number of bytes written to this memory
system.mem_ctrl.num_reads::.cpu.inst             1625                       # Number of read requests responded to by this memory
system.mem_ctrl.num_reads::.cpu.data             2457                       # Number of read requests responded to by this memory
system.mem_ctrl.num_reads::total                 4082                       # Number of read requests responded to by this memory
system.mem_ctrl.num_writes::.writebacks            33                       # Number of write requests responded to by this memory
system.mem_ctrl.num_writes::total                  33                       # Number of write requests responded to by this memory
system.mem_ctrl.bw_read::.cpu.inst           25081261                       # Total read bandwidth from this memory (bytes/s)
system.mem_ctrl.bw_read::.cpu.data           37922866                       # Total read bandwidth from this memory (bytes/s)
system.mem_ctrl.bw_read::total               63004127                       # Total read bandwidth from this memory (bytes/s)
system.mem_ctrl.bw_inst_read::.cpu.inst      25081261                       # Instruction read bandwidth from this memory (bytes/s)
system.mem_ctrl.bw_inst_read::total          25081261                       # Instruction read bandwidth from this memory (bytes/s)
system.mem_ctrl.bw_write::.writebacks          509343                       # Write bandwidth from this memory (bytes/s)
system.mem_ctrl.bw_write::total                509343                       # Write bandwidth from this memory (bytes/s)
system.mem_ctrl.bw_total::.writebacks          509343                       # Total bandwidth to/from this memory (bytes/s)
system.mem_ctrl.bw_total::.cpu.inst          25081261                       # Total bandwidth to/from this memory (bytes/s)
system.mem_ctrl.bw_total::.cpu.data          37922866                       # Total bandwidth to/from this memory (bytes/s)
system.mem_ctrl.bw_total::total              63513470                       # Total bandwidth to/from this memory (bytes/s)
system.mem_ctrl.avgPriority_.writebacks::samples        24.00                       # Average QoS priority value for accepted requests
system.mem_ctrl.avgPriority_.cpu.inst::samples      1625.00                       # Average QoS priority value for accepted requests
system.mem_ctrl.avgPriority_.cpu.data::samples      2432.00                       # Average QoS priority value for accepted requests
system.mem_ctrl.priorityMinLatency       0.000000018750                       # per QoS priority minimum request to response latency (s)
system.mem_ctrl.priorityMaxLatency       0.000000579500                       # per QoS priority maximum request to response latency (s)
system.mem_ctrl.numReadWriteTurnArounds             0                       # Number of turnarounds from READ to WRITE
system.mem_ctrl.numWriteReadTurnArounds             0                       # Number of turnarounds from WRITE to READ
system.mem_ctrl.numStayReadState                 9210                       # Number of times bus staying in READ state
system.mem_ctrl.numStayWriteState                   0                       # Number of times bus staying in WRITE state
system.mem_ctrl.readReqs                         4082                       # Number of read requests accepted
system.mem_ctrl.writeReqs                          33                       # Number of write requests accepted
system.mem_ctrl.readBursts                       4082                       # Number of DRAM read bursts, including those serviced by the write queue
system.mem_ctrl.writeBursts                        33                       # Number of DRAM write bursts, including those merged in the write queue
system.mem_ctrl.servicedByWrQ                      25                       # Number of DRAM read bursts serviced by the write queue
system.mem_ctrl.mergedWrBursts                      9                       # Number of DRAM write bursts merged with an existing one
system.mem_ctrl.neitherReadNorWriteReqs             0                       # Number of requests that are neither read nor write
system.mem_ctrl.perBankRdBursts::0                297                       # Per bank write bursts
system.mem_ctrl.perBankRdBursts::1                464                       # Per bank write bursts
system.mem_ctrl.perBankRdBursts::2                212                       # Per bank write bursts
system.mem_ctrl.perBankRdBursts::3                266                       # Per bank write bursts
system.mem_ctrl.perBankRdBursts::4                127                       # Per bank write bursts
system.mem_ctrl.perBankRdBursts::5                134                       # Per bank write bursts
system.mem_ctrl.perBankRdBursts::6                165                       # Per bank write bursts
system.mem_ctrl.perBankRdBursts::7                301                       # Per bank write bursts
system.mem_ctrl.perBankRdBursts::8                415                       # Per bank write bursts
system.mem_ctrl.perBankRdBursts::9                395                       # Per bank write bursts
system.mem_ctrl.perBankRdBursts::10               238                       # Per bank write bursts
system.mem_ctrl.perBankRdBursts::11               327                       # Per bank write bursts
system.mem_ctrl.perBankRdBursts::12               230                       # Per bank write bursts
system.mem_ctrl.perBankRdBursts::13               142                       # Per bank write bursts
system.mem_ctrl.perBankRdBursts::14                96                       # Per bank write bursts
system.mem_ctrl.perBankRdBursts::15               248                       # Per bank write bursts
system.mem_ctrl.perBankWrBursts::0                  0                       # Per bank write bursts
system.mem_ctrl.perBankWrBursts::1                  0                       # Per bank write bursts
system.mem_ctrl.perBankWrBursts::2                  0                       # Per bank write bursts
system.mem_ctrl.perBankWrBursts::3                  0                       # Per bank write bursts
system.mem_ctrl.perBankWrBursts::4                  0                       # Per bank write bursts
system.mem_ctrl.perBankWrBursts::5                  0                       # Per bank write bursts
system.mem_ctrl.perBankWrBursts::6                  0                       # Per bank write bursts
system.mem_ctrl.perBankWrBursts::7                  0                       # Per bank write bursts
system.mem_ctrl.perBankWrBursts::8                  0                       # Per bank write bursts
system.mem_ctrl.perBankWrBursts::9                  0                       # Per bank write bursts
system.mem_ctrl.perBankWrBursts::10                 0                       # Per bank write bursts
system.mem_ctrl.perBankWrBursts::11                 0                       # Per bank write bursts
system.mem_ctrl.perBankWrBursts::12                 0                       # Per bank write bursts
system.mem_ctrl.perBankWrBursts::13                 0                       # Per bank write bursts
system.mem_ctrl.perBankWrBursts::14                 0                       # Per bank write bursts
system.mem_ctrl.perBankWrBursts::15                 0                       # Per bank write bursts
system.mem_ctrl.avgRdQLen                        1.00                       # Average read queue length when enqueuing
system.mem_ctrl.avgWrQLen                        6.45                       # Average write queue length when enqueuing
system.mem_ctrl.totQLat                      30109750                       # Total ticks spent queuing
system.mem_ctrl.totBusLat                    20285000                       # Total ticks spent in databus transfers
system.mem_ctrl.totMemAccLat                106178500                       # Total ticks spent from burst creation until serviced by the DRAM
system.mem_ctrl.avgQLat                       7421.68                       # Average queueing delay per DRAM burst
system.mem_ctrl.avgBusLat                     5000.00                       # Average bus latency per DRAM burst
system.mem_ctrl.avgMemAccLat                 26171.68                       # Average memory access latency per DRAM burst
system.mem_ctrl.numRdRetry                          0                       # Number of times read queue was full causing retry
system.mem_ctrl.numWrRetry                          0                       # Number of times write queue was full causing retry
system.mem_ctrl.readRowHits                      3045                       # Number of row buffer hits during reads
system.mem_ctrl.writeRowHits                        0                       # Number of row buffer hits during writes
system.mem_ctrl.readRowHitRate                  75.06                       # Row buffer hit rate for reads
system.mem_ctrl.writeRowHitRate                  0.00                       # Row buffer hit rate for writes
system.mem_ctrl.readPktSize::0                      0                       # Read request sizes (log2)
system.mem_ctrl.readPktSize::1                      0                       # Read request sizes (log2)
system.mem_ctrl.readPktSize::2                      0                       # Read request sizes (log2)
system.mem_ctrl.readPktSize::3                      0                       # Read request sizes (log2)
system.mem_ctrl.readPktSize::4                      0                       # Read request sizes (log2)
system.mem_ctrl.readPktSize::5                      0                       # Read request sizes (log2)
system.mem_ctrl.readPktSize::6                   4082                       # Read request sizes (log2)
system.mem_ctrl.writePktSize::0                     0                       # Write request sizes (log2)
system.mem_ctrl.writePktSize::1                     0                       # Write request sizes (log2)
system.mem_ctrl.writePktSize::2                     0                       # Write request sizes (log2)
system.mem_ctrl.writePktSize::3                     0                       # Write request sizes (log2)
system.mem_ctrl.writePktSize::4                     0                       # Write request sizes (log2)
system.mem_ctrl.writePktSize::5                     0                       # Write request sizes (log2)
system.mem_ctrl.writePktSize::6                    33                       # Write request sizes (log2)
system.mem_ctrl.rdQLenPdf::0                     4056                       # What read queue length does an incoming req see
system.mem_ctrl.rdQLenPdf::1                        1                       # What read queue length does an incoming req see
system.mem_ctrl.rdQLenPdf::2                        0                       # What read queue length does an incoming req see
system.mem_ctrl.rdQLenPdf::3                        0                       # What read queue length does an incoming req see
system.mem_ctrl.rdQLenPdf::4                        0                       # What read queue length does an incoming req see
system.mem_ctrl.rdQLenPdf::5                        0                       # What read queue length does an incoming req see
system.mem_ctrl.rdQLenPdf::6                        0                       # What read queue length does an incoming req see
system.mem_ctrl.rdQLenPdf::7                        0                       # What read queue length does an incoming req see
system.mem_ctrl.rdQLenPdf::8                        0                       # What read queue length does an incoming req see
system.mem_ctrl.rdQLenPdf::9                        0                       # What read queue length does an incoming req see
system.mem_ctrl.rdQLenPdf::10                       0                       # What read queue length does an incoming req see
system.mem_ctrl.rdQLenPdf::11                       0                       # What read queue length does an incoming req see
system.mem_ctrl.rdQLenPdf::12                       0                       # What read queue length does an incoming req see
system.mem_ctrl.rdQLenPdf::13                       0                       # What read queue length does an incoming req see
system.mem_ctrl.rdQLenPdf::14                       0                       # What read queue length does an incoming req see
system.mem_ctrl.rdQLenPdf::15                       0                       # What read queue length does an incoming req see
system.mem_ctrl.rdQLenPdf::16                       0                       # What read queue length does an incoming req see
system.mem_ctrl.rdQLenPdf::17                       0                       # What read queue length does an incoming req see
system.mem_ctrl.rdQLenPdf::18                       0                       # What read queue length does an incoming req see
system.mem_ctrl.rdQLenPdf::19                       0                       # What read queue length does an incoming req see
system.mem_ctrl.rdQLenPdf::20                       0                       # What read queue length does an incoming req see
system.mem_ctrl.rdQLenPdf::21                       0                       # What read queue length does an incoming req see
system.mem_ctrl.rdQLenPdf::22                       0                       # What read queue length does an incoming req see
system.mem_ctrl.rdQLenPdf::23                       0                       # What read queue length does an incoming req see
system.mem_ctrl.rdQLenPdf::24                       0                       # What read queue length does an incoming req see
system.mem_ctrl.rdQLenPdf::25                       0                       # What read queue length does an incoming req see
system.mem_ctrl.rdQLenPdf::26                       0                       # What read queue length does an incoming req see
system.mem_ctrl.rdQLenPdf::27                       0                       # What read queue length does an incoming req see
system.mem_ctrl.rdQLenPdf::28                       0                       # What read queue length does an incoming req see
system.mem_ctrl.rdQLenPdf::29                       0                       # What read queue length does an incoming req see
system.mem_ctrl.rdQLenPdf::30                       0                       # What read queue length does an incoming req see
system.mem_ctrl.rdQLenPdf::31                       0                       # What read queue length does an incoming req see
system.mem_ctrl.wrQLenPdf::0                        1                       # What write queue length does an incoming req see
system.mem_ctrl.wrQLenPdf::1                        1                       # What write queue length does an incoming req see
system.mem_ctrl.wrQLenPdf::2                        1                       # What write queue length does an incoming req see
system.mem_ctrl.wrQLenPdf::3                        1                       # What write queue length does an incoming req see
system.mem_ctrl.wrQLenPdf::4                        1                       # What write queue length does an incoming req see
system.mem_ctrl.wrQLenPdf::5                        1                       # What write queue length does an incoming req see
system.mem_ctrl.wrQLenPdf::6                        1                       # What write queue length does an incoming req see
system.mem_ctrl.wrQLenPdf::7                        1                       # What write queue length does an incoming req see
system.mem_ctrl.wrQLenPdf::8                        1                       # What write queue length does an incoming req see
system.mem_ctrl.wrQLenPdf::9                        1                       # What write queue length does an incoming req see
system.mem_ctrl.wrQLenPdf::10                       1                       # What write queue length does an incoming req see
system.mem_ctrl.wrQLenPdf::11                       1                       # What write queue length does an incoming req see
system.mem_ctrl.wrQLenPdf::12                       1                       # What write queue length does an incoming req see
system.mem_ctrl.wrQLenPdf::13                       1                       # What write queue length does an incoming req see
system.mem_ctrl.wrQLenPdf::14                       1                       # What write queue length does an incoming req see
system.mem_ctrl.wrQLenPdf::15                       1                       # What write queue length does an incoming req see
system.mem_ctrl.wrQLenPdf::16                       1                       # What write queue length does an incoming req see
system.mem_ctrl.wrQLenPdf::17                       1                       # What write queue length does an incoming req see
system.mem_ctrl.wrQLenPdf::18                       1                       # What write queue length does an incoming req see
system.mem_ctrl.wrQLenPdf::19                       1                       # What write queue length does an incoming req see
system.mem_ctrl.wrQLenPdf::20                       1                       # What write queue length does an incoming req see
system.mem_ctrl.wrQLenPdf::21                       1                       # What write queue length does an incoming req see
system.mem_ctrl.wrQLenPdf::22                       1                       # What write queue length does an incoming req see
system.mem_ctrl.wrQLenPdf::23                       1                       # What write queue length does an incoming req see
system.mem_ctrl.wrQLenPdf::24                       0                       # What write queue length does an incoming req see
system.mem_ctrl.wrQLenPdf::25                       0                       # What write queue length does an incoming req see
system.mem_ctrl.wrQLenPdf::26                       0                       # What write queue length does an incoming req see
system.mem_ctrl.wrQLenPdf::27                       0                       # What write queue length does an incoming req see
system.mem_ctrl.wrQLenPdf::28                       0                       # What write queue length does an incoming req see
system.mem_ctrl.wrQLenPdf::29                       0                       # What write queue length does an incoming req see
system.mem_ctrl.wrQLenPdf::30                       0                       # What write queue length does an incoming req see
system.mem_ctrl.wrQLenPdf::31                       0                       # What write queue length does an incoming req see
system.mem_ctrl.wrQLenPdf::32                       0                       # What write queue length does an incoming req see
system.mem_ctrl.wrQLenPdf::33                       0                       # What write queue length does an incoming req see
system.mem_ctrl.wrQLenPdf::34                       0                       # What write queue length does an incoming req see
system.mem_ctrl.wrQLenPdf::35                       0                       # What write queue length does an incoming req see
system.mem_ctrl.wrQLenPdf::36                       0                       # What write queue length does an incoming req see
system.mem_ctrl.wrQLenPdf::37                       0                       # What write queue length does an incoming req see
system.mem_ctrl.wrQLenPdf::38                       0                       # What write queue length does an incoming req see
system.mem_ctrl.wrQLenPdf::39                       0                       # What write queue length does an incoming req see
system.mem_ctrl.wrQLenPdf::40                       0                       # What write queue length does an incoming req see
system.mem_ctrl.wrQLenPdf::41                       0                       # What write queue length does an incoming req see
system.mem_ctrl.wrQLenPdf::42                       0                       # What write queue length does an incoming req see
system.mem_ctrl.wrQLenPdf::43                       0                       # What write queue length does an incoming req see
system.mem_ctrl.wrQLenPdf::44                       0                       # What write queue length does an incoming req see
system.mem_ctrl.wrQLenPdf::45                       0                       # What write queue length does an incoming req see
system.mem_ctrl.wrQLenPdf::46                       0                       # What write queue length does an incoming req see
system.mem_ctrl.wrQLenPdf::47                       0                       # What write queue length does an incoming req see
system.mem_ctrl.wrQLenPdf::48                       0                       # What write queue length does an incoming req see
system.mem_ctrl.wrQLenPdf::49                       0                       # What write queue length does an incoming req see
system.mem_ctrl.wrQLenPdf::50                       0                       # What write queue length does an incoming req see
system.mem_ctrl.wrQLenPdf::51                       0                       # What write queue length does an incoming req see
system.mem_ctrl.wrQLenPdf::52                       0                       # What write queue length does an incoming req see
system.mem_ctrl.wrQLenPdf::53                       0                       # What write queue length does an incoming req see
system.mem_ctrl.wrQLenPdf::54                       0                       # What write queue length does an incoming req see
system.mem_ctrl.wrQLenPdf::55                       0                       # What write queue length does an incoming req see
system.mem_ctrl.wrQLenPdf::56                       0                       # What write queue length does an incoming req see
system.mem_ctrl.wrQLenPdf::57                       0                       # What write queue length does an incoming req see
system.mem_ctrl.wrQLenPdf::58                       0                       # What write queue length does an incoming req see
system.mem_ctrl.wrQLenPdf::59                       0                       # What write queue length does an incoming req see
system.mem_ctrl.wrQLenPdf::60                       0                       # What write queue length does an incoming req see
system.mem_ctrl.wrQLenPdf::61                       0                       # What write queue length does an incoming req see
system.mem_ctrl.wrQLenPdf::62                       0                       # What write queue length does an incoming req see
system.mem_ctrl.wrQLenPdf::63                       0                       # What write queue length does an incoming req see
system.mem_ctrl.bytesPerActivate::samples         1012                       # Bytes accessed per row activation
system.mem_ctrl.bytesPerActivate::mean     256.569170                       # Bytes accessed per row activation
system.mem_ctrl.bytesPerActivate::gmean    160.116067                       # Bytes accessed per row activation
system.mem_ctrl.bytesPerActivate::stdev    283.635338                       # Bytes accessed per row activation
system.mem_ctrl.bytesPerActivate::0-127           378     37.35%     37.35% # Bytes accessed per row activation
system.mem_ctrl.bytesPerActivate::128-255          302     29.84%     67.19% # Bytes accessed per row activation
system.mem_ctrl.bytesPerActivate::256-383          125     12.35%     79.55% # Bytes accessed per row activation
system.mem_ctrl.bytesPerActivate::384-511           48      4.74%     84.29% # Bytes accessed per row activation
system.mem_ctrl.bytesPerActivate::512-639           21      2.08%     86.36% # Bytes accessed per row activation
system.mem_ctrl.bytesPerActivate::640-767           22      2.17%     88.54% # Bytes accessed per row activation
system.mem_ctrl.bytesPerActivate::768-895           38      3.75%     92.29% # Bytes accessed per row activation
system.mem_ctrl.bytesPerActivate::896-1023           10      0.99%     93.28% # Bytes accessed per row activation
system.mem_ctrl.bytesPerActivate::1024-1151           68      6.72%    100.00% # Bytes accessed per row activation
system.mem_ctrl.bytesPerActivate::total          1012                       # Bytes accessed per row activation
system.mem_ctrl.bytesReadDRAM                  259648                       # Total number of bytes read from DRAM
system.mem_ctrl.bytesReadWrQ                     1600                       # Total number of bytes read from write queue
system.mem_ctrl.bytesWritten                        0                       # Total number of bytes written to DRAM
system.mem_ctrl.bytesReadSys                   261248                       # Total read bytes from the system interface side
system.mem_ctrl.bytesWrittenSys                  2112                       # Total written bytes from the system interface side
system.mem_ctrl.avgRdBW                         62.62                       # Average DRAM read bandwidth in MiByte/s
system.mem_ctrl.avgWrBW                          0.00                       # Average achieved write bandwidth in MiByte/s
system.mem_ctrl.avgRdBWSys                      63.00                       # Average system read bandwidth in MiByte/s
system.mem_ctrl.avgWrBWSys                       0.51                       # Average system write bandwidth in MiByte/s
system.mem_ctrl.peakBW                       12800.00                       # Theoretical peak bandwidth in MiByte/s
system.mem_ctrl.busUtil                          0.49                       # Data bus utilization in percentage
system.mem_ctrl.busUtilRead                      0.49                       # Data bus utilization in percentage for reads
system.mem_ctrl.busUtilWrite                     0.00                       # Data bus utilization in percentage for writes
system.mem_ctrl.totGap                     4140794000                       # Total gap between requests
system.mem_ctrl.avgGap                     1006268.29                       # Average gap between requests
system.mem_ctrl.masterReadBytes::.cpu.inst       104000                       # Per-master bytes read from memory
system.mem_ctrl.masterReadBytes::.cpu.data       155648                       # Per-master bytes read from memory
system.mem_ctrl.masterReadRate::.cpu.inst 25081260.873570673168                       # Per-master bytes read from memory rate (Bytes/sec)
system.mem_ctrl.masterReadRate::.cpu.data 37537000.888937771320                       # Per-master bytes read from memory rate (Bytes/sec)
system.mem_ctrl.masterReadAccesses::.cpu.inst         1625                       # Per-master read serviced memory accesses
system.mem_ctrl.masterReadAccesses::.cpu.data         2457                       # Per-master read serviced memory accesses
system.mem_ctrl.masterWriteAccesses::.writebacks           33                       # Per-master write serviced memory accesses
system.mem_ctrl.masterReadTotalLat::.cpu.inst     43324500                       # Per-master read total memory access latency
system.mem_ctrl.masterReadTotalLat::.cpu.data     62854000                       # Per-master read total memory access latency
system.mem_ctrl.masterReadAvgLat::.cpu.inst     26661.23                       # Per-master read average memory access latency
system.mem_ctrl.masterReadAvgLat::.cpu.data     25581.60                       # Per-master read average memory access latency
system.mem_ctrl.masterWriteAvgLat::.writebacks         0.00                       # Per-master write average memory access latency
system.mem_ctrl.pageHitRate                     74.61                       # Row buffer hit rate, read and write combined
system.mem_ctrl.rank1.actEnergy               3541440                       # Energy for activate commands per rank (pJ)
system.mem_ctrl.rank1.preEnergy               1882320                       # Energy for precharge commands per rank (pJ)
system.mem_ctrl.rank1.readEnergy             14929740                       # Energy for read commands per rank (pJ)
system.mem_ctrl.rank1.writeEnergy                   0                       # Energy for write commands per rank (pJ)
system.mem_ctrl.rank1.refreshEnergy      326988480.000000                       # Energy for refresh commands per rank (pJ)
system.mem_ctrl.rank1.actBackEnergy         497824320                       # Energy for active background per rank (pJ)
system.mem_ctrl.rank1.preBackEnergy        1173044160                       # Energy for precharge background per rank (pJ)
system.mem_ctrl.rank1.actPowerDownEnergy            0                       # Energy for active power-down per rank (pJ)
system.mem_ctrl.rank1.prePowerDownEnergy            0                       # Energy for precharge power-down per rank (pJ)
system.mem_ctrl.rank1.selfRefreshEnergy             0                       # Energy for self refresh per rank (pJ)
system.mem_ctrl.rank1.totalEnergy          2018210460                       # Total energy per rank (pJ)
system.mem_ctrl.rank1.averagePower         486.723683                       # Core power per rank (mW)
system.mem_ctrl.rank1.totalIdleTime                 0                       # Total Idle time Per DRAM Rank
system.mem_ctrl.rank1.memoryStateTime::IDLE   3044623500                       # Time in different power states
system.mem_ctrl.rank1.memoryStateTime::REF    138320000                       # Time in different power states
system.mem_ctrl.rank1.memoryStateTime::SREF            0                       # Time in different power states
system.mem_ctrl.rank1.memoryStateTime::PRE_PDN            0                       # Time in different power states
system.mem_ctrl.rank1.memoryStateTime::ACT    963578500                       # Time in different power states
system.mem_ctrl.rank1.memoryStateTime::ACT_PDN            0                       # Time in different power states
system.mem_ctrl.rank0.actEnergy               3684240                       # Energy for activate commands per rank (pJ)
system.mem_ctrl.rank0.preEnergy               1958220                       # Energy for precharge commands per rank (pJ)
system.mem_ctrl.rank0.readEnergy             14037240                       # Energy for read commands per rank (pJ)
system.mem_ctrl.rank0.writeEnergy                   0                       # Energy for write commands per rank (pJ)
system.mem_ctrl.rank0.refreshEnergy      326988480.000000                       # Energy for refresh commands per rank (pJ)
system.mem_ctrl.rank0.actBackEnergy         470738490                       # Energy for active background per rank (pJ)
system.mem_ctrl.rank0.preBackEnergy        1195853280                       # Energy for precharge background per rank (pJ)
system.mem_ctrl.rank0.actPowerDownEnergy            0                       # Energy for active power-down per rank (pJ)
system.mem_ctrl.rank0.prePowerDownEnergy            0                       # Energy for precharge power-down per rank (pJ)
system.mem_ctrl.rank0.selfRefreshEnergy             0                       # Energy for self refresh per rank (pJ)
system.mem_ctrl.rank0.totalEnergy          2013259950                       # Total energy per rank (pJ)
system.mem_ctrl.rank0.averagePower         485.529789                       # Core power per rank (mW)
system.mem_ctrl.rank0.totalIdleTime                 0                       # Total Idle time Per DRAM Rank
system.mem_ctrl.rank0.memoryStateTime::IDLE   3104371750                       # Time in different power states
system.mem_ctrl.rank0.memoryStateTime::REF    138320000                       # Time in different power states
system.mem_ctrl.rank0.memoryStateTime::SREF            0                       # Time in different power states
system.mem_ctrl.rank0.memoryStateTime::PRE_PDN            0                       # Time in different power states
system.mem_ctrl.rank0.memoryStateTime::ACT    903830250                       # Time in different power states
system.mem_ctrl.rank0.memoryStateTime::ACT_PDN            0                       # Time in different power states
system.mem_ctrl.power_state.pwrStateResidencyTicks::UNDEFINED   4146522000                       # Cumulative time (in ticks) in various power states
system.cache_medium.blocked_cycles::no_mshrs            0                       # number of cycles access was blocked
system.cache_medium.blocked_cycles::no_targets            0                       # number of cycles access was blocked
system.cache_medium.blocked::no_mshrs               0                       # number of cycles access was blocked
system.cache_medium.blocked::no_targets             0                       # number of cycles access was blocked
system.cache_medium.avg_blocked_cycles::no_mshrs          nan                       # average number of cycles each access was blocked
system.cache_medium.avg_blocked_cycles::no_targets          nan                       # average number of cycles each access was blocked
system.cache_medium.replacements                    0                       # number of replacements
system.cache_medium.power_state.pwrStateResidencyTicks::UNDEFINED   4146522000                       # Cumulative time (in ticks) in various power states
system.cache_medium.tags.tagsinuse                  0                       # Cycle average of tags in use
system.cache_medium.tags.total_refs                 0                       # Total number of references to valid blocks.
system.cache_medium.tags.sampled_refs               0                       # Sample count of references to valid blocks.
system.cache_medium.tags.avg_refs                 nan                       # Average number of references to valid blocks.
system.cache_medium.tags.warmup_cycle               0                       # Cycle when the warmup percentage was hit.
system.cache_medium.tags.tag_accesses               0                       # Number of tag accesses
system.cache_medium.tags.data_accesses              0                       # Number of data accesses
system.cache_medium.tags.power_state.pwrStateResidencyTicks::UNDEFINED   4146522000                       # Cumulative time (in ticks) in various power states
system.clk_domain.clock                          1000                       # Clock period in ticks
system.clk_domain.voltage_domain.voltage            1                       # Voltage in Volts
system.dcache.demand_hits::.cpu.data           322523                       # number of demand (read+write) hits
system.dcache.demand_hits::total               322523                       # number of demand (read+write) hits
system.dcache.overall_hits::.cpu.data          328108                       # number of overall hits
system.dcache.overall_hits::total              328108                       # number of overall hits
system.dcache.demand_misses::.cpu.data          12247                       # number of demand (read+write) misses
system.dcache.demand_misses::total              12247                       # number of demand (read+write) misses
system.dcache.overall_misses::.cpu.data         14930                       # number of overall misses
system.dcache.overall_misses::total             14930                       # number of overall misses
system.dcache.demand_miss_latency::.cpu.data    340044000                       # number of demand (read+write) miss cycles
system.dcache.demand_miss_latency::total    340044000                       # number of demand (read+write) miss cycles
system.dcache.overall_miss_latency::.cpu.data    405084000                       # number of overall miss cycles
system.dcache.overall_miss_latency::total    405084000                       # number of overall miss cycles
system.dcache.demand_accesses::.cpu.data       334770                       # number of demand (read+write) accesses
system.dcache.demand_accesses::total           334770                       # number of demand (read+write) accesses
system.dcache.overall_accesses::.cpu.data       343038                       # number of overall (read+write) accesses
system.dcache.overall_accesses::total          343038                       # number of overall (read+write) accesses
system.dcache.demand_miss_rate::.cpu.data     0.036583                       # miss rate for demand accesses
system.dcache.demand_miss_rate::total        0.036583                       # miss rate for demand accesses
system.dcache.overall_miss_rate::.cpu.data     0.043523                       # miss rate for overall accesses
system.dcache.overall_miss_rate::total       0.043523                       # miss rate for overall accesses
system.dcache.demand_avg_miss_latency::.cpu.data 27765.493590                       # average overall miss latency
system.dcache.demand_avg_miss_latency::total 27765.493590                       # average overall miss latency
system.dcache.overall_avg_miss_latency::.cpu.data 27132.217013                       # average overall miss latency
system.dcache.overall_avg_miss_latency::total 27132.217013                       # average overall miss latency
system.dcache.blocked_cycles::no_mshrs              0                       # number of cycles access was blocked
system.dcache.blocked_cycles::no_targets            0                       # number of cycles access was blocked
system.dcache.blocked::no_mshrs                     0                       # number of cycles access was blocked
system.dcache.blocked::no_targets                   0                       # number of cycles access was blocked
system.dcache.avg_blocked_cycles::no_mshrs          nan                       # average number of cycles each access was blocked
system.dcache.avg_blocked_cycles::no_targets          nan                       # average number of cycles each access was blocked
system.dcache.writebacks::.writebacks            5457                       # number of writebacks
system.dcache.writebacks::total                  5457                       # number of writebacks
system.dcache.demand_mshr_misses::.cpu.data        12247                       # number of demand (read+write) MSHR misses
system.dcache.demand_mshr_misses::total         12247                       # number of demand (read+write) MSHR misses
system.dcache.overall_mshr_misses::.cpu.data        14930                       # number of overall MSHR misses
system.dcache.overall_mshr_misses::total        14930                       # number of overall MSHR misses
system.dcache.demand_mshr_miss_latency::.cpu.data    315552000                       # number of demand (read+write) MSHR miss cycles
system.dcache.demand_mshr_miss_latency::total    315552000                       # number of demand (read+write) MSHR miss cycles
system.dcache.overall_mshr_miss_latency::.cpu.data    375226000                       # number of overall MSHR miss cycles
system.dcache.overall_mshr_miss_latency::total    375226000                       # number of overall MSHR miss cycles
system.dcache.demand_mshr_miss_rate::.cpu.data     0.036583                       # mshr miss rate for demand accesses
system.dcache.demand_mshr_miss_rate::total     0.036583                       # mshr miss rate for demand accesses
system.dcache.overall_mshr_miss_rate::.cpu.data     0.043523                       # mshr miss rate for overall accesses
system.dcache.overall_mshr_miss_rate::total     0.043523                       # mshr miss rate for overall accesses
system.dcache.demand_avg_mshr_miss_latency::.cpu.data 25765.656896                       # average overall mshr miss latency
system.dcache.demand_avg_mshr_miss_latency::total 25765.656896                       # average overall mshr miss latency
system.dcache.overall_avg_mshr_miss_latency::.cpu.data 25132.350971                       # average overall mshr miss latency
system.dcache.overall_avg_mshr_miss_latency::total 25132.350971                       # average overall mshr miss latency
system.dcache.replacements                      14673                       # number of replacements
system.dcache.ReadReq_hits::.cpu.data          247444                       # number of ReadReq hits
system.dcache.ReadReq_hits::total              247444                       # number of ReadReq hits
system.dcache.ReadReq_misses::.cpu.data          7773                       # number of ReadReq misses
system.dcache.ReadReq_misses::total              7773                       # number of ReadReq misses
system.dcache.ReadReq_miss_latency::.cpu.data    163156000                       # number of ReadReq miss cycles
system.dcache.ReadReq_miss_latency::total    163156000                       # number of ReadReq miss cycles
system.dcache.ReadReq_accesses::.cpu.data       255217                       # number of ReadReq accesses(hits+misses)
system.dcache.ReadReq_accesses::total          255217                       # number of ReadReq accesses(hits+misses)
system.dcache.ReadReq_miss_rate::.cpu.data     0.030456                       # miss rate for ReadReq accesses
[...]
system.dcache.tags.age_task_id_blocks_1024::2          173                       # Occupied blocks per task id
system.dcache.tags.age_task_id_blocks_1024::3           58                       # Occupied blocks per task id
system.dcache.tags.occ_task_id_percent::1024            1                       # Percentage of cache occupancy per task id
system.dcache.tags.tag_accesses               3040871                       # Number of tag accesses
system.dcache.tags.data_accesses              3040871                       # Number of data accesses
system.dcache.tags.power_state.pwrStateResidencyTicks::UNDEFINED  26218895000                       # Cumulative time (in ticks) in various power states
system.cache_large.blocked_cycles::no_mshrs            0                       # number of cycles access was blocked
system.cache_large.blocked_cycles::no_targets            0                       # number of cycles access was blocked
system.cache_large.blocked::no_mshrs                0                       # number of cycles access was blocked
system.cache_large.blocked::no_targets              0                       # number of cycles access was blocked
system.cache_large.avg_blocked_cycles::no_mshrs          nan                       # average number of cycles each access was blocked
system.cache_large.avg_blocked_cycles::no_targets          nan                       # average number of cycles each access was blocked
system.cache_large.replacements                     0                       # number of replacements
system.cache_large.power_state.pwrStateResidencyTicks::UNDEFINED  26218895000                       # Cumulative time (in ticks) in various power states
system.cache_large.tags.tagsinuse                   0                       # Cycle average of tags in use
system.cache_large.tags.total_refs                  0                       # Total number of references to valid blocks.
system.cache_large.tags.sampled_refs                0                       # Sample count of references to valid blocks.
system.cache_large.tags.avg_refs                  nan                       # Average number of references to valid blocks.
system.cache_large.tags.warmup_cycle                0                       # Cycle when the warmup percentage was hit.
system.cache_large.tags.tag_accesses                0                       # Number of tag accesses
system.cache_large.tags.data_accesses               0                       # Number of data accesses
system.cache_large.tags.power_state.pwrStateResidencyTicks::UNDEFINED  26218895000                       # Cumulative time (in ticks) in various power states
system.l2cache.demand_hits::.cpu.inst            7370                       # number of demand (read+write) hits
system.l2cache.demand_hits::.cpu.data           10416                       # number of demand (read+write) hits
system.l2cache.demand_hits::total               17786                       # number of demand (read+write) hits
system.l2cache.overall_hits::.cpu.inst           7370                       # number of overall hits
system.l2cache.overall_hits::.cpu.data          10416                       # number of overall hits
system.l2cache.overall_hits::total              17786                       # number of overall hits
system.l2cache.demand_misses::.cpu.inst         13991                       # number of demand (read+write) misses
system.l2cache.demand_misses::.cpu.data         79942                       # number of demand (read+write) misses
system.l2cache.demand_misses::total             93933                       # number of demand (read+write) misses
system.l2cache.overall_misses::.cpu.inst        13991                       # number of overall misses
system.l2cache.overall_misses::.cpu.data        79942                       # number of overall misses
system.l2cache.overall_misses::total            93933                       # number of overall misses
system.l2cache.demand_miss_latency::.cpu.inst    298973000                       # number of demand (read+write) miss cycles
system.l2cache.demand_miss_latency::.cpu.data   1465803000                       # number of demand (read+write) miss cycles
system.l2cache.demand_miss_latency::total   1764776000                       # number of demand (read+write) miss cycles
system.l2cache.overall_miss_latency::.cpu.inst    298973000                       # number of overall miss cycles
system.l2cache.overall_miss_latency::.cpu.data   1465803000                       # number of overall miss cycles
system.l2cache.overall_miss_latency::total   1764776000                       # number of overall miss cycles
system.l2cache.demand_accesses::.cpu.inst        21361                       # number of demand (read+write) accesses
system.l2cache.demand_accesses::.cpu.data        90358                       # number of demand (read+write) accesses
system.l2cache.demand_accesses::total          111719                       # number of demand (read+write) accesses
system.l2cache.overall_accesses::.cpu.inst        21361                       # number of overall (read+write) accesses
system.l2cache.overall_accesses::.cpu.data        90358                       # number of overall (read+write) accesses
system.l2cache.overall_accesses::total         111719                       # number of overall (read+write) accesses
system.l2cache.demand_miss_rate::.cpu.inst     0.654979                       # miss rate for demand accesses
system.l2cache.demand_miss_rate::.cpu.data     0.884725                       # miss rate for demand accesses
system.l2cache.demand_miss_rate::total       0.840797                       # miss rate for demand accesses
system.l2cache.overall_miss_rate::.cpu.inst     0.654979                       # miss rate for overall accesses
system.l2cache.overall_miss_rate::.cpu.data     0.884725                       # miss rate for overall accesses
system.l2cache.overall_miss_rate::total      0.840797                       # miss rate for overall accesses
system.l2cache.demand_avg_miss_latency::.cpu.inst 21368.951469                       # average overall miss latency
system.l2cache.demand_avg_miss_latency::.cpu.data 18335.830977                       # average overall miss latency
system.l2cache.demand_avg_miss_latency::total 18787.603930                       # average overall miss latency
system.l2cache.overall_avg_miss_latency::.cpu.inst 21368.951469                       # average overall miss latency
system.l2cache.overall_avg_miss_latency::.cpu.data 18335.830977                       # average overall miss latency
system.l2cache.overall_avg_miss_latency::total 18787.603930                       # average overall miss latency
system.l2cache.blocked_cycles::no_mshrs             0                       # number of cycles access was blocked
system.l2cache.blocked_cycles::no_targets            0                       # number of cycles access was blocked
system.l2cache.blocked::no_mshrs                    0                       # number of cycles access was blocked
system.l2cache.blocked::no_targets                  0                       # number of cycles access was blocked
system.l2cache.avg_blocked_cycles::no_mshrs          nan                       # average number of cycles each access was blocked
system.l2cache.avg_blocked_cycles::no_targets          nan                       # average number of cycles each access was blocked
system.l2cache.writebacks::.writebacks          13481                       # number of writebacks
system.l2cache.writebacks::total                13481                       # number of writebacks
system.l2cache.demand_mshr_misses::.cpu.inst        13991                       # number of demand (read+write) MSHR misses
system.l2cache.demand_mshr_misses::.cpu.data        79942                       # number of demand (read+write) MSHR misses
system.l2cache.demand_mshr_misses::total        93933                       # number of demand (read+write) MSHR misses
system.l2cache.overall_mshr_misses::.cpu.inst        13991                       # number of overall MSHR misses
system.l2cache.overall_mshr_misses::.cpu.data        79942                       # number of overall MSHR misses
system.l2cache.overall_mshr_misses::total        93933                       # number of overall MSHR misses
system.l2cache.demand_mshr_miss_latency::.cpu.inst    270991000                       # number of demand (read+write) MSHR miss cycles
system.l2cache.demand_mshr_miss_latency::.cpu.data   1305919000                       # number of demand (read+write) MSHR miss cycles
system.l2cache.demand_mshr_miss_latency::total   1576910000                       # number of demand (read+write) MSHR miss cycles
system.l2cache.overall_mshr_miss_latency::.cpu.inst    270991000                       # number of overall MSHR miss cycles
system.l2cache.overall_mshr_miss_latency::.cpu.data   1305919000                       # number of overall MSHR miss cycles
system.l2cache.overall_mshr_miss_latency::total   1576910000                       # number of overall MSHR miss cycles
system.l2cache.demand_mshr_miss_rate::.cpu.inst     0.654979                       # mshr miss rate for demand accesses
system.l2cache.demand_mshr_miss_rate::.cpu.data     0.884725                       # mshr miss rate for demand accesses
system.l2cache.demand_mshr_miss_rate::total     0.840797                       # mshr miss rate for demand accesses
system.l2cache.overall_mshr_miss_rate::.cpu.inst     0.654979                       # mshr miss rate for overall accesses
system.l2cache.overall_mshr_miss_rate::.cpu.data     0.884725                       # mshr miss rate for overall accesses
system.l2cache.overall_mshr_miss_rate::total     0.840797                       # mshr miss rate for overall accesses
system.l2cache.demand_avg_mshr_miss_latency::.cpu.inst 19368.951469                       # average overall mshr miss latency
system.l2cache.demand_avg_mshr_miss_latency::.cpu.data 16335.830977                       # average overall mshr miss latency
system.l2cache.demand_avg_mshr_miss_latency::total 16787.603930                       # average overall mshr miss latency
system.l2cache.overall_avg_mshr_miss_latency::.cpu.inst 19368.951469                       # average overall mshr miss latency
system.l2cache.overall_avg_mshr_miss_latency::.cpu.data 16335.830977                       # average overall mshr miss latency
system.l2cache.overall_avg_mshr_miss_latency::total 16787.603930                       # average overall mshr miss latency
system.l2cache.replacements                    102179                       # number of replacements
system.l2cache.ReadReq_hits::.cpu.inst           7370                       # number of ReadReq hits
system.l2cache.ReadReq_hits::.cpu.data          10416                       # number of ReadReq hits
system.l2cache.ReadReq_hits::total              17786                       # number of ReadReq hits
system.l2cache.ReadReq_misses::.cpu.inst        13991                       # number of ReadReq misses
system.l2cache.ReadReq_misses::.cpu.data        79942                       # number of ReadReq misses
system.l2cache.ReadReq_misses::total            93933                       # number of ReadReq misses
system.l2cache.ReadReq_miss_latency::.cpu.inst    298973000                       # number of ReadReq miss cycles
system.l2cache.ReadReq_miss_latency::.cpu.data   1465803000                       # number of ReadReq miss cycles
system.l2cache.ReadReq_miss_latency::total   1764776000                       # number of ReadReq miss cycles
system.l2cache.ReadReq_accesses::.cpu.inst        21361                       # number of ReadReq accesses(hits+misses)
system.l2cache.ReadReq_accesses::.cpu.data        90358                       # number of ReadReq accesses(hits+misses)
system.l2cache.ReadReq_accesses::total         111719                       # number of ReadReq accesses(hits+misses)
system.l2cache.ReadReq_miss_rate::.cpu.inst     0.654979                       # miss rate for ReadReq accesses
system.l2cache.ReadReq_miss_rate::.cpu.data     0.884725                       # miss rate for ReadReq accesses
system.l2cache.ReadReq_miss_rate::total      0.840797                       # miss rate for ReadReq accesses
system.l2cache.ReadReq_avg_miss_latency::.cpu.inst 21368.951469                       # average ReadReq miss latency
system.l2cache.ReadReq_avg_miss_latency::.cpu.data 18335.830977                       # average ReadReq miss latency
system.l2cache.ReadReq_avg_miss_latency::total 18787.603930                       # average ReadReq miss latency
system.l2cache.ReadReq_mshr_misses::.cpu.inst        13991                       # number of ReadReq MSHR misses
system.l2cache.ReadReq_mshr_misses::.cpu.data        79942                       # number of ReadReq MSHR misses
system.l2cache.ReadReq_mshr_misses::total        93933                       # number of ReadReq MSHR misses
system.l2cache.ReadReq_mshr_miss_latency::.cpu.inst    270991000                       # number of ReadReq MSHR miss cycles
system.l2cache.ReadReq_mshr_miss_latency::.cpu.data   1305919000                       # number of ReadReq MSHR miss cycles
system.l2cache.ReadReq_mshr_miss_latency::total   1576910000                       # number of ReadReq MSHR miss cycles
system.l2cache.ReadReq_mshr_miss_rate::.cpu.inst     0.654979                       # mshr miss rate for ReadReq accesses
system.l2cache.ReadReq_mshr_miss_rate::.cpu.data     0.884725                       # mshr miss rate for ReadReq accesses
system.l2cache.ReadReq_mshr_miss_rate::total     0.840797                       # mshr miss rate for ReadReq accesses
system.l2cache.ReadReq_avg_mshr_miss_latency::.cpu.inst 19368.951469                       # average ReadReq mshr miss latency
system.l2cache.ReadReq_avg_mshr_miss_latency::.cpu.data 16335.830977                       # average ReadReq mshr miss latency
system.l2cache.ReadReq_avg_mshr_miss_latency::total 16787.603930                       # average ReadReq mshr miss latency
system.l2cache.WritebackDirty_hits::.writebacks        16196                       # number of WritebackDirty hits
system.l2cache.WritebackDirty_hits::total        16196                       # number of WritebackDirty hits
system.l2cache.WritebackDirty_accesses::.writebacks        16196                       # number of WritebackDirty accesses(hits+misses)
system.l2cache.WritebackDirty_accesses::total        16196                       # number of WritebackDirty accesses(hits+misses)
system.l2cache.power_state.pwrStateResidencyTicks::UNDEFINED  26218895000                       # Cumulative time (in ticks) in various power states
system.l2cache.tags.tagsinuse              510.044437                       # Cycle average of tags in use
system.l2cache.tags.total_refs                 127915                       # Total number of references to valid blocks.
system.l2cache.tags.sampled_refs               102691                       # Sample count of references to valid blocks.
system.l2cache.tags.avg_refs                 1.245630                       # Average number of references to valid blocks.
system.l2cache.tags.warmup_cycle                78000                       # Cycle when the warmup percentage was hit.
system.l2cache.tags.occ_blocks::.writebacks    95.997551                       # Average occupied blocks per requestor
system.l2cache.tags.occ_blocks::.cpu.inst    45.500610                       # Average occupied blocks per requestor
system.l2cache.tags.occ_blocks::.cpu.data   368.546276                       # Average occupied blocks per requestor
system.l2cache.tags.occ_percent::.writebacks     0.187495                       # Average percentage of cache occupancy
system.l2cache.tags.occ_percent::.cpu.inst     0.088868                       # Average percentage of cache occupancy
system.l2cache.tags.occ_percent::.cpu.data     0.719817                       # Average percentage of cache occupancy
system.l2cache.tags.occ_percent::total       0.996181                       # Average percentage of cache occupancy
system.l2cache.tags.occ_task_id_blocks::1024          512                       # Occupied blocks per task id
system.l2cache.tags.age_task_id_blocks_1024::0            3                       # Occupied blocks per task id
system.l2cache.tags.age_task_id_blocks_1024::1           22                       # Occupied blocks per task id
system.l2cache.tags.age_task_id_blocks_1024::2          212                       # Occupied blocks per task id
system.l2cache.tags.age_task_id_blocks_1024::3          275                       # Occupied blocks per task id
system.l2cache.tags.occ_task_id_percent::1024            1                       # Percentage of cache occupancy per task id
system.l2cache.tags.tag_accesses               230606                       # Number of tag accesses
system.l2cache.tags.data_accesses              230606                       # Number of data accesses
system.l2cache.tags.power_state.pwrStateResidencyTicks::UNDEFINED  26218895000                       # Cumulative time (in ticks) in various power states
system.l2bar.trans_dist::ReadReq               111719                       # Transaction distribution
system.l2bar.trans_dist::ReadResp              111719                       # Transaction distribution
system.l2bar.trans_dist::WritebackDirty         16196                       # Transaction distribution
system.l2bar.pkt_count_system.dcache.mem_side::system.l2cache.cpu_side       196912                       # Packet count per connected master and slave (bytes)
system.l2bar.pkt_count_system.icache.mem_side::system.l2cache.cpu_side        42722                       # Packet count per connected master and slave (bytes)
system.l2bar.pkt_count::total                  239634                       # Packet count per connected master and slave (bytes)
system.l2bar.pkt_size_system.dcache.mem_side::system.l2cache.cpu_side      6819456                       # Cumulative packet size per connected master and slave (bytes)
system.l2bar.pkt_size_system.icache.mem_side::system.l2cache.cpu_side      1367104                       # Cumulative packet size per connected master and slave (bytes)
system.l2bar.pkt_size::total                  8186560                       # Cumulative packet size per connected master and slave (bytes)
system.l2bar.respLayer1.occupancy           106805000                       # Layer occupancy (ticks)
system.l2bar.respLayer1.utilization               0.4                       # Layer utilization (%)
system.l2bar.reqLayer0.occupancy            192699000                       # Layer occupancy (ticks)
system.l2bar.reqLayer0.utilization                0.7                       # Layer utilization (%)
system.l2bar.respLayer0.occupancy           451790000                       # Layer occupancy (ticks)
system.l2bar.respLayer0.utilization               1.7                       # Layer utilization (%)
system.l2bar.power_state.pwrStateResidencyTicks::UNDEFINED  26218895000                       # Cumulative time (in ticks) in various power states
system.cpu.dtb.walker.power_state.pwrStateResidencyTicks::UNDEFINED  26218895000                       # Cumulative time (in ticks) in various power states
system.cpu.interrupts.clk_domain.clock          16000                       # Clock period in ticks
system.cpu.itb.walker.power_state.pwrStateResidencyTicks::UNDEFINED  26218895000                       # Cumulative time (in ticks) in various power states
system.cpu.power_state.numTransitions               1                       # Number of power state transitions
system.cpu.power_state.pwrStateResidencyTicks::ON  26218895000                       # Cumulative time (in ticks) in various power states

---------- End Simulation Statistics   ----------
