
---------- Begin Simulation Statistics ----------
final_tick                                 4194583000                       # Number of ticks from beginning of simulation (restored from checkpoints and never reset)
host_inst_rate                                 104637                       # Simulator instruction rate (inst/s)
host_mem_usage                               34214772                       # Number of bytes of host memory used
host_op_rate                                   204786                       # Simulator op (including micro ops) rate (op/s)
host_seconds                                     9.56                       # Real time elapsed on the host
host_tick_rate                              438895787                       # Simulator tick rate (ticks/s)
sim_freq                                 1000000000000                       # Frequency of simulated ticks
sim_insts                                     1000002                       # Number of instructions simulated
sim_ops                                       1957157                       # Number of ops (including micro ops) simulated
sim_seconds                                  0.004195                       # Number of seconds simulated
sim_ticks                                  4194583000                       # Number of ticks simulated
system.cpu.Branches                            218834                       # Number of branches fetched
system.cpu.committedInsts                     1000002                       # Number of instructions committed
system.cpu.committedOps                       1957157                       # Number of ops (including micro ops) committed
system.cpu.dtb.rdAccesses                      183755                       # TLB accesses on read requests
system.cpu.dtb.rdMisses                            35                       # TLB misses on read requests
system.cpu.dtb.wrAccesses                      130607                       # TLB accesses on write requests
system.cpu.dtb.wrMisses                            92                       # TLB misses on write requests
system.cpu.idle_fraction                            0                       # Percentage of idle cycles
system.cpu.itb.rdAccesses                           0                       # TLB accesses on read requests
system.cpu.itb.rdMisses                             0                       # TLB misses on read requests
system.cpu.itb.wrAccesses                     1330404                       # TLB accesses on write requests
system.cpu.itb.wrMisses                            90                       # TLB misses on write requests
system.cpu.not_idle_fraction                        1                       # Percentage of non-idle cycles
system.cpu.numCycles                          4194572                       # number of cpu cycles simulated
system.cpu.numWorkItemsCompleted                    0                       # number of work items this cpu completed
system.cpu.numWorkItemsStarted                      0                       # number of work items this cpu started
system.cpu.num_busy_cycles                    4194572                       # Number of busy cycles
system.cpu.num_cc_register_reads              1243314                       # number of times the CC registers were read
system.cpu.num_cc_register_writes              640821                       # number of times the CC registers were written
system.cpu.num_conditional_control_insts       167670                       # number of instructions that are conditional controls
system.cpu.num_fp_alu_accesses                  84075                       # Number of float alu accesses
system.cpu.num_fp_insts                         84075                       # number of float instructions
system.cpu.num_fp_register_reads               125488                       # number of times the floating registers were read
system.cpu.num_fp_register_writes               65671                       # number of times the floating registers were written
system.cpu.num_func_calls                       28327                       # number of times a function call or return occured
system.cpu.num_idle_cycles                          0                       # Number of idle cycles
system.cpu.num_int_alu_accesses               1896342                       # Number of integer alu accesses
system.cpu.num_int_insts                      1896342                       # number of integer instructions
system.cpu.num_int_register_reads             3666946                       # number of times the integer registers were read
system.cpu.num_int_register_writes            1559945                       # number of times the integer registers were written
system.cpu.num_load_insts                      182942                       # Number of load instructions
system.cpu.num_mem_refs                        313440                       # number of memory refs
system.cpu.num_store_insts                     130498                       # Number of store instructions
system.cpu.num_vec_alu_accesses                     0                       # Number of vector alu accesses
system.cpu.num_vec_insts                            0                       # number of vector instructions
system.cpu.num_vec_register_reads                   0                       # number of times the vector registers were read
system.cpu.num_vec_register_writes                  0                       # number of times the vector registers were written
system.cpu.op_class::No_OpClass                 15396      0.79%      0.79% # Class of executed instruction
system.cpu.op_class::IntAlu                   1556163     79.51%     80.30% # Class of executed instruction
system.cpu.op_class::IntMult                     1609      0.08%     80.38% # Class of executed instruction
system.cpu.op_class::IntDiv                     12886      0.66%     81.04% # Class of executed instruction
system.cpu.op_class::FloatAdd                    1125      0.06%     81.10% # Class of executed instruction
system.cpu.op_class::FloatCmp                       0      0.00%     81.10% # Class of executed instruction
system.cpu.op_class::FloatCvt                       0      0.00%     81.10% # Class of executed instruction
system.cpu.op_class::FloatMult                      0      0.00%     81.10% # Class of executed instruction
system.cpu.op_class::FloatMultAcc                   0      0.00%     81.10% # Class of executed instruction
system.cpu.op_class::FloatDiv                       0      0.00%     81.10% # Class of executed instruction
system.cpu.op_class::FloatMisc                      0      0.00%     81.10% # Class of executed instruction
system.cpu.op_class::FloatSqrt                      0      0.00%     81.10% # Class of executed instruction
system.cpu.op_class::SimdAdd                      506      0.03%     81.12% # Class of executed instruction
system.cpu.op_class::SimdAddAcc                     0      0.00%     81.12% # Class of executed instruction
system.cpu.op_class::SimdAlu                    16697      0.85%     81.97% # Class of executed instruction
system.cpu.op_class::SimdCmp                        0      0.00%     81.97% # Class of executed instruction
system.cpu.op_class::SimdCvt                    13394      0.68%     82.66% # Class of executed instruction
system.cpu.op_class::SimdMisc                   15714      0.80%     83.46% # Class of executed instruction
system.cpu.op_class::SimdMult                       0      0.00%     83.46% # Class of executed instruction
system.cpu.op_class::SimdMultAcc                    0      0.00%     83.46% # Class of executed instruction
system.cpu.op_class::SimdShift                    827      0.04%     83.50% # Class of executed instruction
system.cpu.op_class::SimdShiftAcc                   0      0.00%     83.50% # Class of executed instruction
system.cpu.op_class::SimdDiv                        0      0.00%     83.50% # Class of executed instruction
system.cpu.op_class::SimdSqrt                       0      0.00%     83.50% # Class of executed instruction
system.cpu.op_class::SimdFloatAdd                4280      0.22%     83.72% # Class of executed instruction
system.cpu.op_class::SimdFloatAlu                   0      0.00%     83.72% # Class of executed instruction
system.cpu.op_class::SimdFloatCmp                   0      0.00%     83.72% # Class of executed instruction
system.cpu.op_class::SimdFloatCvt                1712      0.09%     83.81% # Class of executed instruction
system.cpu.op_class::SimdFloatDiv                   0      0.00%     83.81% # Class of executed instruction
system.cpu.op_class::SimdFloatMisc                  0      0.00%     83.81% # Class of executed instruction
system.cpu.op_class::SimdFloatMult               2568      0.13%     83.94% # Class of executed instruction
system.cpu.op_class::SimdFloatMultAcc               0      0.00%     83.94% # Class of executed instruction
system.cpu.op_class::SimdFloatSqrt                856      0.04%     83.99% # Class of executed instruction
system.cpu.op_class::SimdReduceAdd                  0      0.00%     83.99% # Class of executed instruction
system.cpu.op_class::SimdReduceAlu                  0      0.00%     83.99% # Class of executed instruction
system.cpu.op_class::SimdReduceCmp                  0      0.00%     83.99% # Class of executed instruction
system.cpu.op_class::SimdFloatReduceAdd             0      0.00%     83.99% # Class of executed instruction
system.cpu.op_class::SimdFloatReduceCmp             0      0.00%     83.99% # Class of executed instruction
system.cpu.op_class::SimdAes                        0      0.00%     83.99% # Class of executed instruction
system.cpu.op_class::SimdAesMix                     0      0.00%     83.99% # Class of executed instruction
system.cpu.op_class::SimdSha1Hash                   0      0.00%     83.99% # Class of executed instruction
system.cpu.op_class::SimdSha1Hash2                  0      0.00%     83.99% # Class of executed instruction
system.cpu.op_class::SimdSha256Hash                 0      0.00%     83.99% # Class of executed instruction
system.cpu.op_class::SimdSha256Hash2                0      0.00%     83.99% # Class of executed instruction
system.cpu.op_class::SimdShaSigma2                  0      0.00%     83.99% # Class of executed instruction
system.cpu.op_class::SimdShaSigma3                  0      0.00%     83.99% # Class of executed instruction
system.cpu.op_class::SimdPredAlu                    0      0.00%     83.99% # Class of executed instruction
system.cpu.op_class::MemRead                   160903      8.22%     92.21% # Class of executed instruction
system.cpu.op_class::MemWrite                  126794      6.48%     98.68% # Class of executed instruction
system.cpu.op_class::FloatMemRead               22039      1.13%     99.81% # Class of executed instruction
system.cpu.op_class::FloatMemWrite               3704      0.19%    100.00% # Class of executed instruction
system.cpu.op_class::IprAccess                      0      0.00%    100.00% # Class of executed instruction
system.cpu.op_class::InstPrefetch                   0      0.00%    100.00% # Class of executed instruction
system.cpu.op_class::total                    1957173                       # Class of executed instruction
system.cpu.workload.numSyscalls                    34                       # Number of system calls
system.dynamic_cache.flushTicks                     0                       # Ticks taken to flush
system.dynamic_cache.numFlushes                     0                       # Number of Flushes Taken
system.cache_small.demand_hits::.cpu.inst        11113                       # number of demand (read+write) hits
system.cache_small.demand_hits::.cpu.data          689                       # number of demand (read+write) hits
system.cache_small.demand_hits::total           11802                       # number of demand (read+write) hits
system.cache_small.overall_hits::.cpu.inst        11113                       # number of overall hits
system.cache_small.overall_hits::.cpu.data          689                       # number of overall hits
system.cache_small.overall_hits::total          11802                       # number of overall hits
system.cache_small.demand_misses::.cpu.inst         1390                       # number of demand (read+write) misses
system.cache_small.demand_misses::.cpu.data         3891                       # number of demand (read+write) misses
system.cache_small.demand_misses::total          5281                       # number of demand (read+write) misses
system.cache_small.overall_misses::.cpu.inst         1390                       # number of overall misses
system.cache_small.overall_misses::.cpu.data         3891                       # number of overall misses
system.cache_small.overall_misses::total         5281                       # number of overall misses
system.cache_small.demand_miss_latency::.cpu.inst     86300000                       # number of demand (read+write) miss cycles
system.cache_small.demand_miss_latency::.cpu.data    227869000                       # number of demand (read+write) miss cycles
system.cache_small.demand_miss_latency::total    314169000                       # number of demand (read+write) miss cycles
system.cache_small.overall_miss_latency::.cpu.inst     86300000                       # number of overall miss cycles
system.cache_small.overall_miss_latency::.cpu.data    227869000                       # number of overall miss cycles
system.cache_small.overall_miss_latency::total    314169000                       # number of overall miss cycles
system.cache_small.demand_accesses::.cpu.inst        12503                       # number of demand (read+write) accesses
system.cache_small.demand_accesses::.cpu.data         4580                       # number of demand (read+write) accesses
system.cache_small.demand_accesses::total        17083                       # number of demand (read+write) accesses
system.cache_small.overall_accesses::.cpu.inst        12503                       # number of overall (read+write) accesses
system.cache_small.overall_accesses::.cpu.data         4580                       # number of overall (read+write) accesses
system.cache_small.overall_accesses::total        17083                       # number of overall (read+write) accesses
system.cache_small.demand_miss_rate::.cpu.inst     0.111173                       # miss rate for demand accesses
system.cache_small.demand_miss_rate::.cpu.data     0.849563                       # miss rate for demand accesses
system.cache_small.demand_miss_rate::total     0.309138                       # miss rate for demand accesses
system.cache_small.overall_miss_rate::.cpu.inst     0.111173                       # miss rate for overall accesses
system.cache_small.overall_miss_rate::.cpu.data     0.849563                       # miss rate for overall accesses
system.cache_small.overall_miss_rate::total     0.309138                       # miss rate for overall accesses
system.cache_small.demand_avg_miss_latency::.cpu.inst 62086.330935                       # average overall miss latency
system.cache_small.demand_avg_miss_latency::.cpu.data 58563.094320                       # average overall miss latency
system.cache_small.demand_avg_miss_latency::total 59490.437417                       # average overall miss latency
system.cache_small.overall_avg_miss_latency::.cpu.inst 62086.330935                       # average overall miss latency
system.cache_small.overall_avg_miss_latency::.cpu.data 58563.094320                       # average overall miss latency
system.cache_small.overall_avg_miss_latency::total 59490.437417                       # average overall miss latency
system.cache_small.blocked_cycles::no_mshrs            0                       # number of cycles access was blocked
system.cache_small.blocked_cycles::no_targets            0                       # number of cycles access was blocked
system.cache_small.blocked::no_mshrs                0                       # number of cycles access was blocked
system.cache_small.blocked::no_targets              0                       # number of cycles access was blocked
system.cache_small.avg_blocked_cycles::no_mshrs          nan                       # average number of cycles each access was blocked
system.cache_small.avg_blocked_cycles::no_targets          nan                       # average number of cycles each access was blocked
system.cache_small.writebacks::.writebacks          432                       # number of writebacks
system.cache_small.writebacks::total              432                       # number of writebacks
system.cache_small.demand_mshr_misses::.cpu.inst         1390                       # number of demand (read+write) MSHR misses
system.cache_small.demand_mshr_misses::.cpu.data         3891                       # number of demand (read+write) MSHR misses
system.cache_small.demand_mshr_misses::total         5281                       # number of demand (read+write) MSHR misses
system.cache_small.overall_mshr_misses::.cpu.inst         1390                       # number of overall MSHR misses
system.cache_small.overall_mshr_misses::.cpu.data         3891                       # number of overall MSHR misses
system.cache_small.overall_mshr_misses::total         5281                       # number of overall MSHR misses
system.cache_small.demand_mshr_miss_latency::.cpu.inst     83520000                       # number of demand (read+write) MSHR miss cycles
system.cache_small.demand_mshr_miss_latency::.cpu.data    220087000                       # number of demand (read+write) MSHR miss cycles
system.cache_small.demand_mshr_miss_latency::total    303607000                       # number of demand (read+write) MSHR miss cycles
system.cache_small.overall_mshr_miss_latency::.cpu.inst     83520000                       # number of overall MSHR miss cycles
system.cache_small.overall_mshr_miss_latency::.cpu.data    220087000                       # number of overall MSHR miss cycles
system.cache_small.overall_mshr_miss_latency::total    303607000                       # number of overall MSHR miss cycles
system.cache_small.demand_mshr_miss_rate::.cpu.inst     0.111173                       # mshr miss rate for demand accesses
system.cache_small.demand_mshr_miss_rate::.cpu.data     0.849563                       # mshr miss rate for demand accesses
system.cache_small.demand_mshr_miss_rate::total     0.309138                       # mshr miss rate for demand accesses
system.cache_small.overall_mshr_miss_rate::.cpu.inst     0.111173                       # mshr miss rate for overall accesses
system.cache_small.overall_mshr_miss_rate::.cpu.data     0.849563                       # mshr miss rate for overall accesses
system.cache_small.overall_mshr_miss_rate::total     0.309138                       # mshr miss rate for overall accesses
system.cache_small.demand_avg_mshr_miss_latency::.cpu.inst 60086.330935                       # average overall mshr miss latency
system.cache_small.demand_avg_mshr_miss_latency::.cpu.data 56563.094320                       # average overall mshr miss latency
system.cache_small.demand_avg_mshr_miss_latency::total 57490.437417                       # average overall mshr miss latency
system.cache_small.overall_avg_mshr_miss_latency::.cpu.inst 60086.330935                       # average overall mshr miss latency
system.cache_small.overall_avg_mshr_miss_latency::.cpu.data 56563.094320                       # average overall mshr miss latency
system.cache_small.overall_avg_mshr_miss_latency::total 57490.437417                       # average overall mshr miss latency
system.cache_small.replacements                  1356                       # number of replacements
system.cache_small.ReadReq_hits::.cpu.inst        11113                       # number of ReadReq hits
system.cache_small.ReadReq_hits::.cpu.data          689                       # number of ReadReq hits
system.cache_small.ReadReq_hits::total          11802                       # number of ReadReq hits
system.cache_small.ReadReq_misses::.cpu.inst         1390                       # number of ReadReq misses
system.cache_small.ReadReq_misses::.cpu.data         3891                       # number of ReadReq misses
system.cache_small.ReadReq_misses::total         5281                       # number of ReadReq misses
system.cache_small.ReadReq_miss_latency::.cpu.inst     86300000                       # number of ReadReq miss cycles
system.cache_small.ReadReq_miss_latency::.cpu.data    227869000                       # number of ReadReq miss cycles
system.cache_small.ReadReq_miss_latency::total    314169000                       # number of ReadReq miss cycles
system.cache_small.ReadReq_accesses::.cpu.inst        12503                       # number of ReadReq accesses(hits+misses)
system.cache_small.ReadReq_accesses::.cpu.data         4580                       # number of ReadReq accesses(hits+misses)
system.cache_small.ReadReq_accesses::total        17083                       # number of ReadReq accesses(hits+misses)
system.cache_small.ReadReq_miss_rate::.cpu.inst     0.111173                       # miss rate for ReadReq accesses
system.cache_small.ReadReq_miss_rate::.cpu.data     0.849563                       # miss rate for ReadReq accesses
system.cache_small.ReadReq_miss_rate::total     0.309138                       # miss rate for ReadReq accesses
system.cache_small.ReadReq_avg_miss_latency::.cpu.inst 62086.330935                       # average ReadReq miss latency
system.cache_small.ReadReq_avg_miss_latency::.cpu.data 58563.094320                       # average ReadReq miss latency
system.cache_small.ReadReq_avg_miss_latency::total 59490.437417                       # average ReadReq miss latency
system.cache_small.ReadReq_mshr_misses::.cpu.inst         1390                       # number of ReadReq MSHR misses
system.cache_small.ReadReq_mshr_misses::.cpu.data         3891                       # number of ReadReq MSHR misses
system.cache_small.ReadReq_mshr_misses::total         5281                       # number of ReadReq MSHR misses
system.cache_small.ReadReq_mshr_miss_latency::.cpu.inst     83520000                       # number of ReadReq MSHR miss cycles
system.cache_small.ReadReq_mshr_miss_latency::.cpu.data    220087000                       # number of ReadReq MSHR miss cycles
system.cache_small.ReadReq_mshr_miss_latency::total    303607000                       # number of ReadReq MSHR miss cycles
system.cache_small.ReadReq_mshr_miss_rate::.cpu.inst     0.111173                       # mshr miss rate for ReadReq accesses
system.cache_small.ReadReq_mshr_miss_rate::.cpu.data     0.849563                       # mshr miss rate for ReadReq accesses
system.cache_small.ReadReq_mshr_miss_rate::total     0.309138                       # mshr miss rate for ReadReq accesses
system.cache_small.ReadReq_avg_mshr_miss_latency::.cpu.inst 60086.330935                       # average ReadReq mshr miss latency
system.cache_small.ReadReq_avg_mshr_miss_latency::.cpu.data 56563.094320                       # average ReadReq mshr miss latency
system.cache_small.ReadReq_avg_mshr_miss_latency::total 57490.437417                       # average ReadReq mshr miss latency
system.cache_small.WritebackDirty_hits::.writebacks         3949                       # number of WritebackDirty hits
system.cache_small.WritebackDirty_hits::total         3949                       # number of WritebackDirty hits
system.cache_small.WritebackDirty_accesses::.writebacks         3949                       # number of WritebackDirty accesses(hits+misses)
system.cache_small.WritebackDirty_accesses::total         3949                       # number of WritebackDirty accesses(hits+misses)
system.cache_small.power_state.pwrStateResidencyTicks::UNDEFINED   4194583000                       # Cumulative time (in ticks) in various power states
system.cache_small.tags.tagsinuse         3299.857346                       # Cycle average of tags in use
system.cache_small.tags.total_refs               2198                       # Total number of references to valid blocks.
system.cache_small.tags.sampled_refs             1356                       # Sample count of references to valid blocks.
system.cache_small.tags.avg_refs             1.620944                       # Average number of references to valid blocks.
system.cache_small.tags.warmup_cycle            76000                       # Cycle when the warmup percentage was hit.
system.cache_small.tags.occ_blocks::.writebacks    11.095722                       # Average occupied blocks per requestor
system.cache_small.tags.occ_blocks::.cpu.inst   612.804166                       # Average occupied blocks per requestor
system.cache_small.tags.occ_blocks::.cpu.data  2675.957459                       # Average occupied blocks per requestor
system.cache_small.tags.occ_percent::.writebacks     0.001354                       # Average percentage of cache occupancy
system.cache_small.tags.occ_percent::.cpu.inst     0.074805                       # Average percentage of cache occupancy
system.cache_small.tags.occ_percent::.cpu.data     0.326655                       # Average percentage of cache occupancy
system.cache_small.tags.occ_percent::total     0.402815                       # Average percentage of cache occupancy
system.cache_small.tags.occ_task_id_blocks::1024         4053                       # Occupied blocks per task id
system.cache_small.tags.age_task_id_blocks_1024::0            9                       # Occupied blocks per task id
system.cache_small.tags.age_task_id_blocks_1024::1           70                       # Occupied blocks per task id
system.cache_small.tags.age_task_id_blocks_1024::2          159                       # Occupied blocks per task id
system.cache_small.tags.age_task_id_blocks_1024::3         3815                       # Occupied blocks per task id
system.cache_small.tags.occ_task_id_percent::1024     0.494751                       # Percentage of cache occupancy per task id
system.cache_small.tags.tag_accesses            26441                       # Number of tag accesses
system.cache_small.tags.data_accesses           26441                       # Number of data accesses
system.cache_small.tags.power_state.pwrStateResidencyTicks::UNDEFINED   4194583000                       # Cumulative time (in ticks) in various power states
system.icache.demand_hits::.cpu.inst          1302046                       # number of demand (read+write) hits
system.icache.demand_hits::total              1302046                       # number of demand (read+write) hits
system.icache.overall_hits::.cpu.inst         1302046                       # number of overall hits
system.icache.overall_hits::total             1302046                       # number of overall hits
system.icache.demand_misses::.cpu.inst          28358                       # number of demand (read+write) misses
system.icache.demand_misses::total              28358                       # number of demand (read+write) misses
system.icache.overall_misses::.cpu.inst         28358                       # number of overall misses
system.icache.overall_misses::total             28358                       # number of overall misses
system.icache.demand_miss_latency::.cpu.inst    559111000                       # number of demand (read+write) miss cycles
system.icache.demand_miss_latency::total    559111000                       # number of demand (read+write) miss cycles
system.icache.overall_miss_latency::.cpu.inst    559111000                       # number of overall miss cycles
system.icache.overall_miss_latency::total    559111000                       # number of overall miss cycles
system.icache.demand_accesses::.cpu.inst      1330404                       # number of demand (read+write) accesses
system.icache.demand_accesses::total          1330404                       # number of demand (read+write) accesses
system.icache.overall_accesses::.cpu.inst      1330404                       # number of overall (read+write) accesses
system.icache.overall_accesses::total         1330404                       # number of overall (read+write) accesses
system.icache.demand_miss_rate::.cpu.inst     0.021315                       # miss rate for demand accesses
system.icache.demand_miss_rate::total        0.021315                       # miss rate for demand accesses
system.icache.overall_miss_rate::.cpu.inst     0.021315                       # miss rate for overall accesses
system.icache.overall_miss_rate::total       0.021315                       # miss rate for overall accesses
system.icache.demand_avg_miss_latency::.cpu.inst 19716.164751                       # average overall miss latency
system.icache.demand_avg_miss_latency::total 19716.164751                       # average overall miss latency
system.icache.overall_avg_miss_latency::.cpu.inst 19716.164751                       # average overall miss latency
system.icache.overall_avg_miss_latency::total 19716.164751                       # average overall miss latency
system.icache.blocked_cycles::no_mshrs              0                       # number of cycles access was blocked
system.icache.blocked_cycles::no_targets            0                       # number of cycles access was blocked
system.icache.blocked::no_mshrs                     0                       # number of cycles access was blocked
system.icache.blocked::no_targets                   0                       # number of cycles access was blocked
system.icache.avg_blocked_cycles::no_mshrs          nan                       # average number of cycles each access was blocked
system.icache.avg_blocked_cycles::no_targets          nan                       # average number of cycles each access was blocked
system.icache.demand_mshr_misses::.cpu.inst        28358                       # number of demand (read+write) MSHR misses
system.icache.demand_mshr_misses::total         28358                       # number of demand (read+write) MSHR misses
system.icache.overall_mshr_misses::.cpu.inst        28358                       # number of overall MSHR misses
system.icache.overall_mshr_misses::total        28358                       # number of overall MSHR misses
system.icache.demand_mshr_miss_latency::.cpu.inst    502395000                       # number of demand (read+write) MSHR miss cycles
system.icache.demand_mshr_miss_latency::total    502395000                       # number of demand (read+write) MSHR miss cycles
system.icache.overall_mshr_miss_latency::.cpu.inst    502395000                       # number of overall MSHR miss cycles
system.icache.overall_mshr_miss_latency::total    502395000                       # number of overall MSHR miss cycles
system.icache.demand_mshr_miss_rate::.cpu.inst     0.021315                       # mshr miss rate for demand accesses
system.icache.demand_mshr_miss_rate::total     0.021315                       # mshr miss rate for demand accesses
system.icache.overall_mshr_miss_rate::.cpu.inst     0.021315                       # mshr miss rate for overall accesses
system.icache.overall_mshr_miss_rate::total     0.021315                       # mshr miss rate for overall accesses
system.icache.demand_avg_mshr_miss_latency::.cpu.inst 17716.164751                       # average overall mshr miss latency
system.icache.demand_avg_mshr_miss_latency::total 17716.164751                       # average overall mshr miss latency
system.icache.overall_avg_mshr_miss_latency::.cpu.inst 17716.164751                       # average overall mshr miss latency
system.icache.overall_avg_mshr_miss_latency::total 17716.164751                       # average overall mshr miss latency
system.icache.replacements                      28102                       # number of replacements
system.icache.ReadReq_hits::.cpu.inst         1302046                       # number of ReadReq hits
system.icache.ReadReq_hits::total             1302046                       # number of ReadReq hits
system.icache.ReadReq_misses::.cpu.inst         28358                       # number of ReadReq misses
system.icache.ReadReq_misses::total             28358                       # number of ReadReq misses
system.icache.ReadReq_miss_latency::.cpu.inst    559111000                       # number of ReadReq miss cycles
system.icache.ReadReq_miss_latency::total    559111000                       # number of ReadReq miss cycles
system.icache.ReadReq_accesses::.cpu.inst      1330404                       # number of ReadReq accesses(hits+misses)
system.icache.ReadReq_accesses::total         1330404                       # number of ReadReq accesses(hits+misses)
system.icache.ReadReq_miss_rate::.cpu.inst     0.021315                       # miss rate for ReadReq accesses
system.icache.ReadReq_miss_rate::total       0.021315                       # miss rate for ReadReq accesses
system.icache.ReadReq_avg_miss_latency::.cpu.inst 19716.164751                       # average ReadReq miss latency
system.icache.ReadReq_avg_miss_latency::total 19716.164751                       # average ReadReq miss latency
system.icache.ReadReq_mshr_misses::.cpu.inst        28358                       # number of ReadReq MSHR misses
system.icache.ReadReq_mshr_misses::total        28358                       # number of ReadReq MSHR misses
system.icache.ReadReq_mshr_miss_latency::.cpu.inst    502395000                       # number of ReadReq MSHR miss cycles
system.icache.ReadReq_mshr_miss_latency::total    502395000                       # number of ReadReq MSHR miss cycles
system.icache.ReadReq_mshr_miss_rate::.cpu.inst     0.021315                       # mshr miss rate for ReadReq accesses
system.icache.ReadReq_mshr_miss_rate::total     0.021315                       # mshr miss rate for ReadReq accesses
system.icache.ReadReq_avg_mshr_miss_latency::.cpu.inst 17716.164751                       # average ReadReq mshr miss latency
system.icache.ReadReq_avg_mshr_miss_latency::total 17716.164751                       # average ReadReq mshr miss latency
system.icache.power_state.pwrStateResidencyTicks::UNDEFINED   4194583000                       # Cumulative time (in ticks) in various power states
system.icache.tags.tagsinuse               251.006260                       # Cycle average of tags in use
system.icache.tags.total_refs                 1126697                       # Total number of references to valid blocks.
system.icache.tags.sampled_refs                 28102                       # Sample count of references to valid blocks.
system.icache.tags.avg_refs                 40.093125                       # Average number of references to valid blocks.
system.icache.tags.warmup_cycle                 82000                       # Cycle when the warmup percentage was hit.
system.icache.tags.occ_blocks::.cpu.inst   251.006260                       # Average occupied blocks per requestor
system.icache.tags.occ_percent::.cpu.inst     0.980493                       # Average percentage of cache occupancy
system.icache.tags.occ_percent::total        0.980493                       # Average percentage of cache occupancy
system.icache.tags.occ_task_id_blocks::1024          256                       # Occupied blocks per task id
system.icache.tags.age_task_id_blocks_1024::0           41                       # Occupied blocks per task id
system.icache.tags.age_task_id_blocks_1024::1           86                       # Occupied blocks per task id
system.icache.tags.age_task_id_blocks_1024::2            6                       # Occupied blocks per task id
system.icache.tags.age_task_id_blocks_1024::3          123                       # Occupied blocks per task id
system.icache.tags.occ_task_id_percent::1024            1                       # Percentage of cache occupancy per task id
system.icache.tags.tag_accesses               1358762                       # Number of tag accesses
system.icache.tags.data_accesses              1358762                       # Number of data accesses
system.icache.tags.power_state.pwrStateResidencyTicks::UNDEFINED   4194583000                       # Cumulative time (in ticks) in various power states
system.membus.trans_dist::ReadReq                5281                       # Transaction distribution
system.membus.trans_dist::ReadResp               5281                       # Transaction distribution
system.membus.trans_dist::WritebackDirty          432                       # Transaction distribution
system.membus.pkt_count_system.cache_small.mem_side::system.mem_ctrl.port        10994                       # Packet count per connected master and slave (bytes)
system.membus.pkt_count_system.cache_small.mem_side::total        10994                       # Packet count per connected master and slave (bytes)
system.membus.pkt_count::total                  10994                       # Packet count per connected master and slave (bytes)
system.membus.pkt_size_system.cache_small.mem_side::system.mem_ctrl.port       365632                       # Cumulative packet size per connected master and slave (bytes)
system.membus.pkt_size_system.cache_small.mem_side::total       365632                       # Cumulative packet size per connected master and slave (bytes)
system.membus.pkt_size::total                  365632                       # Cumulative packet size per connected master and slave (bytes)
system.membus.reqLayer2.occupancy             7441000                       # Layer occupancy (ticks)
system.membus.reqLayer2.utilization               0.2                       # Layer utilization (%)
system.membus.respLayer1.occupancy           28124250                       # Layer occupancy (ticks)
system.membus.respLayer1.utilization              0.7                       # Layer utilization (%)
system.membus.power_state.pwrStateResidencyTicks::UNDEFINED   4194583000                       # Cumulative time (in ticks) in various power states
system.mem_ctrl.bytes_read::.cpu.inst           88960                       # Number of bytes read from this memory
system.mem_ctrl.bytes_read::.cpu.data          249024                       # Number of bytes read from this memory
system.mem_ctrl.bytes_read::total              337984                       # Number of bytes read from this memory
system.mem_ctrl.bytes_inst_read::.cpu.inst        88960                       # Number of instructions bytes read from this memory
system.mem_ctrl.bytes_inst_read::total          88960                       # Number of instructions bytes read from this memory
system.mem_ctrl.bytes_written::.writebacks        27648                       # Number of bytes written to this memory
system.mem_ctrl.bytes_written::total            27648                       # Number of bytes written to this memory
system.mem_ctrl.num_reads::.cpu.inst             1390                       # Number of read requests responded to by this memory
system.mem_ctrl.num_reads::.cpu.data             3891                       # Number of read requests responded to by this memory
system.mem_ctrl.num_reads::total                 5281                       # Number of read requests responded to by this memory
system.mem_ctrl.num_writes::.writebacks           432                       # Number of write requests responded to by this memory
system.mem_ctrl.num_writes::total                 432                       # Number of write requests responded to by this memory
system.mem_ctrl.bw_read::.cpu.inst           21208306                       # Total read bandwidth from this memory (bytes/s)
system.mem_ctrl.bw_read::.cpu.data           59367999                       # Total read bandwidth from this memory (bytes/s)
system.mem_ctrl.bw_read::total               80576305                       # Total read bandwidth from this memory (bytes/s)
system.mem_ctrl.bw_inst_read::.cpu.inst      21208306                       # Instruction read bandwidth from this memory (bytes/s)
system.mem_ctrl.bw_inst_read::total          21208306                       # Instruction read bandwidth from this memory (bytes/s)
system.mem_ctrl.bw_write::.writebacks         6591358                       # Write bandwidth from this memory (bytes/s)
system.mem_ctrl.bw_write::total               6591358                       # Write bandwidth from this memory (bytes/s)
system.mem_ctrl.bw_total::.writebacks         6591358                       # Total bandwidth to/from this memory (bytes/s)
system.mem_ctrl.bw_total::.cpu.inst          21208306                       # Total bandwidth to/from this memory (bytes/s)
system.mem_ctrl.bw_total::.cpu.data          59367999                       # Total bandwidth to/from this memory (bytes/s)
system.mem_ctrl.bw_total::total              87167664                       # Total bandwidth to/from this memory (bytes/s)
system.mem_ctrl.avgPriority_.writebacks::samples       332.00                       # Average QoS priority value for accepted requests
system.mem_ctrl.avgPriority_.cpu.inst::samples      1390.00                       # Average QoS priority value for accepted requests
system.mem_ctrl.avgPriority_.cpu.data::samples      3889.00                       # Average QoS priority value for accepted requests
system.mem_ctrl.priorityMinLatency       0.000000018750                       # per QoS priority minimum request to response latency (s)
system.mem_ctrl.priorityMaxLatency       0.005143256500                       # per QoS priority maximum request to response latency (s)
system.mem_ctrl.numReadWriteTurnArounds            18                       # Number of turnarounds from READ to WRITE
system.mem_ctrl.numWriteReadTurnArounds            18                       # Number of turnarounds from WRITE to READ
system.mem_ctrl.numStayReadState                12057                       # Number of times bus staying in READ state
system.mem_ctrl.numStayWriteState                 292                       # Number of times bus staying in WRITE state
system.mem_ctrl.readReqs                         5281                       # Number of read requests accepted
system.mem_ctrl.writeReqs                         432                       # Number of write requests accepted
system.mem_ctrl.readBursts                       5281                       # Number of DRAM read bursts, including those serviced by the write queue
system.mem_ctrl.writeBursts                       432                       # Number of DRAM write bursts, including those merged in the write queue
system.mem_ctrl.servicedByWrQ                       2                       # Number of DRAM read bursts serviced by the write queue
system.mem_ctrl.mergedWrBursts                    100                       # Number of DRAM write bursts merged with an existing one
system.mem_ctrl.neitherReadNorWriteReqs             0                       # Number of requests that are neither read nor write
system.mem_ctrl.perBankRdBursts::0                446                       # Per bank write bursts
system.mem_ctrl.perBankRdBursts::1                298                       # Per bank write bursts
system.mem_ctrl.perBankRdBursts::2                305                       # Per bank write bursts
system.mem_ctrl.perBankRdBursts::3                204                       # Per bank write bursts
system.mem_ctrl.perBankRdBursts::4                270                       # Per bank write bursts
system.mem_ctrl.perBankRdBursts::5                396                       # Per bank write bursts
system.mem_ctrl.perBankRdBursts::6                467                       # Per bank write bursts
system.mem_ctrl.perBankRdBursts::7                287                       # Per bank write bursts
system.mem_ctrl.perBankRdBursts::8                362                       # Per bank write bursts
system.mem_ctrl.perBankRdBursts::9                231                       # Per bank write bursts
system.mem_ctrl.perBankRdBursts::10               241                       # Per bank write bursts
system.mem_ctrl.perBankRdBursts::11               352                       # Per bank write bursts
system.mem_ctrl.perBankRdBursts::12               309                       # Per bank write bursts
system.mem_ctrl.perBankRdBursts::13               582                       # Per bank write bursts
system.mem_ctrl.perBankRdBursts::14               305                       # Per bank write bursts
system.mem_ctrl.perBankRdBursts::15               224                       # Per bank write bursts
system.mem_ctrl.perBankWrBursts::0                 25                       # Per bank write bursts
system.mem_ctrl.perBankWrBursts::1                  4                       # Per bank write bursts
system.mem_ctrl.perBankWrBursts::2                  6                       # Per bank write bursts
system.mem_ctrl.perBankWrBursts::3                  8                       # Per bank write bursts
system.mem_ctrl.perBankWrBursts::4                 10                       # Per bank write bursts
system.mem_ctrl.perBankWrBursts::5                 50                       # Per bank write bursts
system.mem_ctrl.perBankWrBursts::6                 42                       # Per bank write bursts
system.mem_ctrl.perBankWrBursts::7                 32                       # Per bank write bursts
system.mem_ctrl.perBankWrBursts::8                 10                       # Per bank write bursts
system.mem_ctrl.perBankWrBursts::9                  6                       # Per bank write bursts
system.mem_ctrl.perBankWrBursts::10                 0                       # Per bank write bursts
system.mem_ctrl.perBankWrBursts::11                50                       # Per bank write bursts
system.mem_ctrl.perBankWrBursts::12                12                       # Per bank write bursts
system.mem_ctrl.perBankWrBursts::13                44                       # Per bank write bursts
system.mem_ctrl.perBankWrBursts::14                10                       # Per bank write bursts
system.mem_ctrl.perBankWrBursts::15                 1                       # Per bank write bursts
system.mem_ctrl.avgRdQLen                        1.00                       # Average read queue length when enqueuing
system.mem_ctrl.avgWrQLen                       15.89                       # Average write queue length when enqueuing
system.mem_ctrl.totQLat                      39215500                       # Total ticks spent queuing
system.mem_ctrl.totBusLat                    26395000                       # Total ticks spent in databus transfers
system.mem_ctrl.totMemAccLat                138196750                       # Total ticks spent from burst creation until serviced by the DRAM
system.mem_ctrl.avgQLat                       7428.58                       # Average queueing delay per DRAM burst
system.mem_ctrl.avgBusLat                     5000.00                       # Average bus latency per DRAM burst
system.mem_ctrl.avgMemAccLat                 26178.58                       # Average memory access latency per DRAM burst
system.mem_ctrl.numRdRetry                          0                       # Number of times read queue was full causing retry
system.mem_ctrl.numWrRetry                          0                       # Number of times write queue was full causing retry
system.mem_ctrl.readRowHits                      3884                       # Number of row buffer hits during reads
system.mem_ctrl.writeRowHits                      236                       # Number of row buffer hits during writes
system.mem_ctrl.readRowHitRate                  73.57                       # Row buffer hit rate for reads
system.mem_ctrl.writeRowHitRate                 71.08                       # Row buffer hit rate for writes
system.mem_ctrl.readPktSize::0                      0                       # Read request sizes (log2)
system.mem_ctrl.readPktSize::1                      0                       # Read request sizes (log2)
system.mem_ctrl.readPktSize::2                      0                       # Read request sizes (log2)
system.mem_ctrl.readPktSize::3                      0                       # Read request sizes (log2)
system.mem_ctrl.readPktSize::4                      0                       # Read request sizes (log2)
system.mem_ctrl.readPktSize::5                      0                       # Read request sizes (log2)
system.mem_ctrl.readPktSize::6                   5281                       # Read request sizes (log2)
system.mem_ctrl.writePktSize::0                     0                       # Write request sizes (log2)
system.mem_ctrl.writePktSize::1                     0                       # Write request sizes (log2)
system.mem_ctrl.writePktSize::2                     0                       # Write request sizes (log2)
system.mem_ctrl.writePktSize::3                     0                       # Write request sizes (log2)
system.mem_ctrl.writePktSize::4                     0                       # Write request sizes (log2)
system.mem_ctrl.writePktSize::5                     0                       # Write request sizes (log2)
system.mem_ctrl.writePktSize::6                   432                       # Write request sizes (log2)
system.mem_ctrl.rdQLenPdf::0                     5279                       # What read queue length does an incoming req see
system.mem_ctrl.rdQLenPdf::1                        0                       # What read queue length does an incoming req see
system.mem_ctrl.rdQLenPdf::2                        0                       # What read queue length does an incoming req see
system.mem_ctrl.rdQLenPdf::3                        0                       # What read queue length does an incoming req see
system.mem_ctrl.rdQLenPdf::4                        0                       # What read queue length does an incoming req see
system.mem_ctrl.rdQLenPdf::5                        0                       # What read queue length does an incoming req see
system.mem_ctrl.rdQLenPdf::6                        0                       # What read queue length does an incoming req see
system.mem_ctrl.rdQLenPdf::7                        0                       # What read queue length does an incoming req see
system.mem_ctrl.rdQLenPdf::8                        0                       # What read queue length does an incoming req see
system.mem_ctrl.rdQLenPdf::9                        0                       # What read queue length does an incoming req see
system.mem_ctrl.rdQLenPdf::10                       0                       # What read queue length does an incoming req see
system.mem_ctrl.rdQLenPdf::11                       0                       # What read queue length does an incoming req see
system.mem_ctrl.rdQLenPdf::12                       0                       # What read queue length does an incoming req see
system.mem_ctrl.rdQLenPdf::13                       0                       # What read queue length does an incoming req see
system.mem_ctrl.rdQLenPdf::14                       0                       # What read queue length does an incoming req see
system.mem_ctrl.rdQLenPdf::15                       0                       # What read queue length does an incoming req see
system.mem_ctrl.rdQLenPdf::16                       0                       # What read queue length does an incoming req see
system.mem_ctrl.rdQLenPdf::17                       0                       # What read queue length does an incoming req see
system.mem_ctrl.rdQLenPdf::18                       0                       # What read queue length does an incoming req see
system.mem_ctrl.rdQLenPdf::19                       0                       # What read queue length does an incoming req see
system.mem_ctrl.rdQLenPdf::20                       0                       # What read queue length does an incoming req see
system.mem_ctrl.rdQLenPdf::21                       0                       # What read queue length does an incoming req see
system.mem_ctrl.rdQLenPdf::22                       0                       # What read queue length does an incoming req see
system.mem_ctrl.rdQLenPdf::23                       0                       # What read queue length does an incoming req see
system.mem_ctrl.rdQLenPdf::24                       0                       # What read queue length does an incoming req see
system.mem_ctrl.rdQLenPdf::25                       0                       # What read queue length does an incoming req see
system.mem_ctrl.rdQLenPdf::26                       0                       # What read queue length does an incoming req see
system.mem_ctrl.rdQLenPdf::27                       0                       # What read queue length does an incoming req see
system.mem_ctrl.rdQLenPdf::28                       0                       # What read queue length does an incoming req see
system.mem_ctrl.rdQLenPdf::29                       0                       # What read queue length does an incoming req see
system.mem_ctrl.rdQLenPdf::30                       0                       # What read queue length does an incoming req see
system.mem_ctrl.rdQLenPdf::31                       0                       # What read queue length does an incoming req see
system.mem_ctrl.wrQLenPdf::0                        1                       # What write queue length does an incoming req see
system.mem_ctrl.wrQLenPdf::1                        1                       # What write queue length does an incoming req see
system.mem_ctrl.wrQLenPdf::2                        1                       # What write queue length does an incoming req see
system.mem_ctrl.wrQLenPdf::3                        1                       # What write queue length does an incoming req see
system.mem_ctrl.wrQLenPdf::4                        1                       # What write queue length does an incoming req see
system.mem_ctrl.wrQLenPdf::5                        1                       # What write queue length does an incoming req see
system.mem_ctrl.wrQLenPdf::6                        1                       # What write queue length does an incoming req see
system.mem_ctrl.wrQLenPdf::7                        1                       # What write queue length does an incoming req see
system.mem_ctrl.wrQLenPdf::8                        1                       # What write queue length does an incoming req see
system.mem_ctrl.wrQLenPdf::9                        1                       # What write queue length does an incoming req see
system.mem_ctrl.wrQLenPdf::10                       1                       # What write queue length does an incoming req see
system.mem_ctrl.wrQLenPdf::11                       1                       # What write queue length does an incoming req see
system.mem_ctrl.wrQLenPdf::12                       1                       # What write queue length does an incoming req see
system.mem_ctrl.wrQLenPdf::13                       1                       # What write queue length does an incoming req see
system.mem_ctrl.wrQLenPdf::14                       1                       # What write queue length does an incoming req see
system.mem_ctrl.wrQLenPdf::15                      12                       # What write queue length does an incoming req see
system.mem_ctrl.wrQLenPdf::16                      12                       # What write queue length does an incoming req see
system.mem_ctrl.wrQLenPdf::17                      19                       # What write queue length does an incoming req see
system.mem_ctrl.wrQLenPdf::18                      19                       # What write queue length does an incoming req see
system.mem_ctrl.wrQLenPdf::19                      19                       # What write queue length does an incoming req see
system.mem_ctrl.wrQLenPdf::20                      19                       # What write queue length does an incoming req see
system.mem_ctrl.wrQLenPdf::21                      19                       # What write queue length does an incoming req see
system.mem_ctrl.wrQLenPdf::22                      18                       # What write queue length does an incoming req see
system.mem_ctrl.wrQLenPdf::23                      18                       # What write queue length does an incoming req see
system.mem_ctrl.wrQLenPdf::24                      18                       # What write queue length does an incoming req see
system.mem_ctrl.wrQLenPdf::25                      18                       # What write queue length does an incoming req see
system.mem_ctrl.wrQLenPdf::26                      18                       # What write queue length does an incoming req see
system.mem_ctrl.wrQLenPdf::27                      18                       # What write queue length does an incoming req see
system.mem_ctrl.wrQLenPdf::28                      18                       # What write queue length does an incoming req see
system.mem_ctrl.wrQLenPdf::29                      18                       # What write queue length does an incoming req see
system.mem_ctrl.wrQLenPdf::30                      18                       # What write queue length does an incoming req see
system.mem_ctrl.wrQLenPdf::31                      18                       # What write queue length does an incoming req see
system.mem_ctrl.wrQLenPdf::32                      18                       # What write queue length does an incoming req see
system.mem_ctrl.wrQLenPdf::33                       0                       # What write queue length does an incoming req see
system.mem_ctrl.wrQLenPdf::34                       0                       # What write queue length does an incoming req see
system.mem_ctrl.wrQLenPdf::35                       0                       # What write queue length does an incoming req see
system.mem_ctrl.wrQLenPdf::36                       0                       # What write queue length does an incoming req see
system.mem_ctrl.wrQLenPdf::37                       0                       # What write queue length does an incoming req see
system.mem_ctrl.wrQLenPdf::38                       0                       # What write queue length does an incoming req see
system.mem_ctrl.wrQLenPdf::39                       0                       # What write queue length does an incoming req see
system.mem_ctrl.wrQLenPdf::40                       0                       # What write queue length does an incoming req see
system.mem_ctrl.wrQLenPdf::41                       0                       # What write queue length does an incoming req see
system.mem_ctrl.wrQLenPdf::42                       0                       # What write queue length does an incoming req see
system.mem_ctrl.wrQLenPdf::43                       0                       # What write queue length does an incoming req see
system.mem_ctrl.wrQLenPdf::44                       0                       # What write queue length does an incoming req see
system.mem_ctrl.wrQLenPdf::45                       0                       # What write queue length does an incoming req see
system.mem_ctrl.wrQLenPdf::46                       0                       # What write queue length does an incoming req see
system.mem_ctrl.wrQLenPdf::47                       0                       # What write queue length does an incoming req see
system.mem_ctrl.wrQLenPdf::48                       0                       # What write queue length does an incoming req see
system.mem_ctrl.wrQLenPdf::49                       0                       # What write queue length does an incoming req see
system.mem_ctrl.wrQLenPdf::50                       0                       # What write queue length does an incoming req see
system.mem_ctrl.wrQLenPdf::51                       0                       # What write queue length does an incoming req see
system.mem_ctrl.wrQLenPdf::52                       0                       # What write queue length does an incoming req see
system.mem_ctrl.wrQLenPdf::53                       0                       # What write queue length does an incoming req see
system.mem_ctrl.wrQLenPdf::54                       0                       # What write queue length does an incoming req see
system.mem_ctrl.wrQLenPdf::55                       0                       # What write queue length does an incoming req see
system.mem_ctrl.wrQLenPdf::56                       0                       # What write queue length does an incoming req see
system.mem_ctrl.wrQLenPdf::57                       0                       # What write queue length does an incoming req see
system.mem_ctrl.wrQLenPdf::58                       0                       # What write queue length does an incoming req see
system.mem_ctrl.wrQLenPdf::59                       0                       # What write queue length does an incoming req see
system.mem_ctrl.wrQLenPdf::60                       0                       # What write queue length does an incoming req see
system.mem_ctrl.wrQLenPdf::61                       0                       # What write queue length does an incoming req see
system.mem_ctrl.wrQLenPdf::62                       0                       # What write queue length does an incoming req see
system.mem_ctrl.wrQLenPdf::63                       0                       # What write queue length does an incoming req see
system.mem_ctrl.bytesPerActivate::samples         1467                       # Bytes accessed per row activation
system.mem_ctrl.bytesPerActivate::mean     243.566462                       # Bytes accessed per row activation
system.mem_ctrl.bytesPerActivate::gmean    145.836874                       # Bytes accessed per row activation
system.mem_ctrl.bytesPerActivate::stdev    286.809761                       # Bytes accessed per row activation
system.mem_ctrl.bytesPerActivate::0-127           725     49.42%     49.42% # Bytes accessed per row activation
system.mem_ctrl.bytesPerActivate::128-255          229     15.61%     65.03% # Bytes accessed per row activation
system.mem_ctrl.bytesPerActivate::256-383          276     18.81%     83.84% # Bytes accessed per row activation
system.mem_ctrl.bytesPerActivate::384-511           38      2.59%     86.43% # Bytes accessed per row activation
system.mem_ctrl.bytesPerActivate::512-639           23      1.57%     88.00% # Bytes accessed per row activation
system.mem_ctrl.bytesPerActivate::640-767           19      1.30%     89.30% # Bytes accessed per row activation
system.mem_ctrl.bytesPerActivate::768-895           18      1.23%     90.52% # Bytes accessed per row activation
system.mem_ctrl.bytesPerActivate::896-1023           15      1.02%     91.55% # Bytes accessed per row activation
system.mem_ctrl.bytesPerActivate::1024-1151          124      8.45%    100.00% # Bytes accessed per row activation
system.mem_ctrl.bytesPerActivate::total          1467                       # Bytes accessed per row activation
system.mem_ctrl.rdPerTurnAround::samples           18                       # Reads before turning the bus around for writes
system.mem_ctrl.rdPerTurnAround::mean      290.333333                       # Reads before turning the bus around for writes
system.mem_ctrl.rdPerTurnAround::gmean      48.095718                       # Reads before turning the bus around for writes
system.mem_ctrl.rdPerTurnAround::stdev     901.476175                       # Reads before turning the bus around for writes
system.mem_ctrl.rdPerTurnAround::0-127             15     83.33%     83.33% # Reads before turning the bus around for writes
system.mem_ctrl.rdPerTurnAround::256-383            1      5.56%     88.89% # Reads before turning the bus around for writes
system.mem_ctrl.rdPerTurnAround::640-767            1      5.56%     94.44% # Reads before turning the bus around for writes
system.mem_ctrl.rdPerTurnAround::3840-3967            1      5.56%    100.00% # Reads before turning the bus around for writes
system.mem_ctrl.rdPerTurnAround::total             18                       # Reads before turning the bus around for writes
system.mem_ctrl.wrPerTurnAround::samples           18                       # Writes before turning the bus around for reads
system.mem_ctrl.wrPerTurnAround::mean       17.222222                       # Writes before turning the bus around for reads
system.mem_ctrl.wrPerTurnAround::gmean      17.194116                       # Writes before turning the bus around for reads
system.mem_ctrl.wrPerTurnAround::stdev       1.003263                       # Writes before turning the bus around for reads
system.mem_ctrl.wrPerTurnAround::16                 7     38.89%     38.89% # Writes before turning the bus around for reads
system.mem_ctrl.wrPerTurnAround::18                11     61.11%    100.00% # Writes before turning the bus around for reads
system.mem_ctrl.wrPerTurnAround::total             18                       # Writes before turning the bus around for reads
system.mem_ctrl.bytesReadDRAM                  337856                       # Total number of bytes read from DRAM
system.mem_ctrl.bytesReadWrQ                      128                       # Total number of bytes read from write queue
system.mem_ctrl.bytesWritten                    19840                       # Total number of bytes written to DRAM
system.mem_ctrl.bytesReadSys                   337984                       # Total read bytes from the system interface side
system.mem_ctrl.bytesWrittenSys                 27648                       # Total written bytes from the system interface side
system.mem_ctrl.avgRdBW                         80.55                       # Average DRAM read bandwidth in MiByte/s
system.mem_ctrl.avgWrBW                          4.73                       # Average achieved write bandwidth in MiByte/s
system.mem_ctrl.avgRdBWSys                      80.58                       # Average system read bandwidth in MiByte/s
system.mem_ctrl.avgWrBWSys                       6.59                       # Average system write bandwidth in MiByte/s
system.mem_ctrl.peakBW                       12800.00                       # Theoretical peak bandwidth in MiByte/s
system.mem_ctrl.busUtil                          0.67                       # Data bus utilization in percentage
system.mem_ctrl.busUtilRead                      0.63                       # Data bus utilization in percentage for reads
system.mem_ctrl.busUtilWrite                     0.04                       # Data bus utilization in percentage for writes
system.mem_ctrl.totGap                     4194088000                       # Total gap between requests
system.mem_ctrl.avgGap                      734130.58                       # Average gap between requests
system.mem_ctrl.masterReadBytes::.cpu.inst        88960                       # Per-master bytes read from memory
system.mem_ctrl.masterReadBytes::.cpu.data       248896                       # Per-master bytes read from memory
system.mem_ctrl.masterWriteBytes::.writebacks        19840                       # Per-master bytes write to memory
system.mem_ctrl.masterReadRate::.cpu.inst 21208306.046155244112                       # Per-master bytes read from memory rate (Bytes/sec)
system.mem_ctrl.masterReadRate::.cpu.data 59337483.606832906604                       # Per-master bytes read from memory rate (Bytes/sec)
system.mem_ctrl.masterWriteRate::.writebacks 4729909.981516636908                       # Per-master bytes write to memory rate (Bytes/sec)
system.mem_ctrl.masterReadAccesses::.cpu.inst         1390                       # Per-master read serviced memory accesses
system.mem_ctrl.masterReadAccesses::.cpu.data         3891                       # Per-master read serviced memory accesses
system.mem_ctrl.masterWriteAccesses::.writebacks          432                       # Per-master write serviced memory accesses
system.mem_ctrl.masterReadTotalLat::.cpu.inst     39915000                       # Per-master read total memory access latency
system.mem_ctrl.masterReadTotalLat::.cpu.data     98281750                       # Per-master read total memory access latency
system.mem_ctrl.masterWriteTotalLat::.writebacks  48342761750                       # Per-master write total memory access latency
system.mem_ctrl.masterReadAvgLat::.cpu.inst     28715.83                       # Per-master read average memory access latency
system.mem_ctrl.masterReadAvgLat::.cpu.data     25258.74                       # Per-master read average memory access latency
system.mem_ctrl.masterWriteAvgLat::.writebacks 111904541.09                       # Per-master write average memory access latency
system.mem_ctrl.pageHitRate                     73.43                       # Row buffer hit rate, read and write combined
system.mem_ctrl.rank1.actEnergy               6104700                       # Energy for activate commands per rank (pJ)
system.mem_ctrl.rank1.preEnergy               3244725                       # Energy for precharge commands per rank (pJ)
system.mem_ctrl.rank1.readEnergy             18606840                       # Energy for read commands per rank (pJ)
system.mem_ctrl.rank1.writeEnergy              694260                       # Energy for write commands per rank (pJ)
system.mem_ctrl.rank1.refreshEnergy      330676320.000000                       # Energy for refresh commands per rank (pJ)
system.mem_ctrl.rank1.actBackEnergy        1002148920                       # Energy for active background per rank (pJ)
system.mem_ctrl.rank1.preBackEnergy         766805280                       # Energy for precharge background per rank (pJ)
system.mem_ctrl.rank1.actPowerDownEnergy            0                       # Energy for active power-down per rank (pJ)
system.mem_ctrl.rank1.prePowerDownEnergy            0                       # Energy for precharge power-down per rank (pJ)
system.mem_ctrl.rank1.selfRefreshEnergy             0                       # Energy for self refresh per rank (pJ)
system.mem_ctrl.rank1.totalEnergy          2128281045                       # Total energy per rank (pJ)
system.mem_ctrl.rank1.averagePower         507.387992                       # Core power per rank (mW)
system.mem_ctrl.rank1.totalIdleTime                 0                       # Total Idle time Per DRAM Rank
system.mem_ctrl.rank1.memoryStateTime::IDLE   1983091750                       # Time in different power states
system.mem_ctrl.rank1.memoryStateTime::REF    139880000                       # Time in different power states
system.mem_ctrl.rank1.memoryStateTime::SREF            0                       # Time in different power states
system.mem_ctrl.rank1.memoryStateTime::PRE_PDN            0                       # Time in different power states
system.mem_ctrl.rank1.memoryStateTime::ACT   2071611250                       # Time in different power states
system.mem_ctrl.rank1.memoryStateTime::ACT_PDN            0                       # Time in different power states
system.mem_ctrl.rank0.actEnergy               4383960                       # Energy for activate commands per rank (pJ)
system.mem_ctrl.rank0.preEnergy               2322540                       # Energy for precharge commands per rank (pJ)
system.mem_ctrl.rank0.readEnergy             19085220                       # Energy for read commands per rank (pJ)
system.mem_ctrl.rank0.writeEnergy              923940                       # Energy for write commands per rank (pJ)
system.mem_ctrl.rank0.refreshEnergy      330676320.000000                       # Energy for refresh commands per rank (pJ)
system.mem_ctrl.rank0.actBackEnergy         688089180                       # Energy for active background per rank (pJ)
system.mem_ctrl.rank0.preBackEnergy        1031276640                       # Energy for precharge background per rank (pJ)
system.mem_ctrl.rank0.actPowerDownEnergy            0                       # Energy for active power-down per rank (pJ)
system.mem_ctrl.rank0.prePowerDownEnergy            0                       # Energy for precharge power-down per rank (pJ)
system.mem_ctrl.rank0.selfRefreshEnergy             0                       # Energy for self refresh per rank (pJ)
system.mem_ctrl.rank0.totalEnergy          2076757800                       # Total energy per rank (pJ)
system.mem_ctrl.rank0.averagePower         495.104710                       # Core power per rank (mW)
system.mem_ctrl.rank0.totalIdleTime                 0                       # Total Idle time Per DRAM Rank
system.mem_ctrl.rank0.memoryStateTime::IDLE   2673533000                       # Time in different power states
system.mem_ctrl.rank0.memoryStateTime::REF    139880000                       # Time in different power states
system.mem_ctrl.rank0.memoryStateTime::SREF            0                       # Time in different power states
system.mem_ctrl.rank0.memoryStateTime::PRE_PDN            0                       # Time in different power states
system.mem_ctrl.rank0.memoryStateTime::ACT   1381170000                       # Time in different power states
system.mem_ctrl.rank0.memoryStateTime::ACT_PDN            0                       # Time in different power states
system.mem_ctrl.power_state.pwrStateResidencyTicks::UNDEFINED   4194583000                       # Cumulative time (in ticks) in various power states
system.cache_medium.blocked_cycles::no_mshrs            0                       # number of cycles access was blocked
system.cache_medium.blocked_cycles::no_targets            0                       # number of cycles access was blocked
system.cache_medium.blocked::no_mshrs               0                       # number of cycles access was blocked
system.cache_medium.blocked::no_targets             0                       # number of cycles access was blocked
system.cache_medium.avg_blocked_cycles::no_mshrs          nan                       # average number of cycles each access was blocked
system.cache_medium.avg_blocked_cycles::no_targets          nan                       # average number of cycles each access was blocked
system.cache_medium.replacements                    0                       # number of replacements
system.cache_medium.power_state.pwrStateResidencyTicks::UNDEFINED   4194583000                       # Cumulative time (in ticks) in various power states
system.cache_medium.tags.tagsinuse                  0                       # Cycle average of tags in use
system.cache_medium.tags.total_refs                 0                       # Total number of references to valid blocks.
system.cache_medium.tags.sampled_refs               0                       # Sample count of references to valid blocks.
system.cache_medium.tags.avg_refs                 nan                       # Average number of references to valid blocks.
system.cache_medium.tags.warmup_cycle               0                       # Cycle when the warmup percentage was hit.
system.cache_medium.tags.tag_accesses               0                       # Number of tag accesses
system.cache_medium.tags.data_accesses              0                       # Number of data accesses
system.cache_medium.tags.power_state.pwrStateResidencyTicks::UNDEFINED   4194583000                       # Cumulative time (in ticks) in various power states
system.clk_domain.clock                          1000                       # Clock period in ticks
system.clk_domain.voltage_domain.voltage            1                       # Voltage in Volts
system.dcache.demand_hits::.cpu.data           307393                       # number of demand (read+write) hits
system.dcache.demand_hits::total               307393                       # number of demand (read+write) hits
system.dcache.overall_hits::.cpu.data          307397                       # number of overall hits
system.dcache.overall_hits::total              307397                       # number of overall hits
system.dcache.demand_misses::.cpu.data           6872                       # number of demand (read+write) misses
system.dcache.demand_misses::total               6872                       # number of demand (read+write) misses
system.dcache.overall_misses::.cpu.data          6949                       # number of overall misses
system.dcache.overall_misses::total              6949                       # number of overall misses
system.dcache.demand_miss_latency::.cpu.data    337293000                       # number of demand (read+write) miss cycles
system.dcache.demand_miss_latency::total    337293000                       # number of demand (read+write) miss cycles
system.dcache.overall_miss_latency::.cpu.data    343037000                       # number of overall miss cycles
system.dcache.overall_miss_latency::total    343037000                       # number of overall miss cycles
system.dcache.demand_accesses::.cpu.data       314265                       # number of demand (read+write) accesses
system.dcache.demand_accesses::total           314265                       # number of demand (read+write) accesses
system.dcache.overall_accesses::.cpu.data       314346                       # number of overall (read+write) accesses
system.dcache.overall_accesses::total          314346                       # number of overall (read+write) accesses
system.dcache.demand_miss_rate::.cpu.data     0.021867                       # miss rate for demand accesses
system.dcache.demand_miss_rate::total        0.021867                       # miss rate for demand accesses
system.dcache.overall_miss_rate::.cpu.data     0.022106                       # miss rate for overall accesses
system.dcache.overall_miss_rate::total       0.022106                       # miss rate for overall accesses
system.dcache.demand_avg_miss_latency::.cpu.data 49082.217695                       # average overall miss latency
system.dcache.demand_avg_miss_latency::total 49082.217695                       # average overall miss latency
system.dcache.overall_avg_miss_latency::.cpu.data 49364.944596                       # average overall miss latency
system.dcache.overall_avg_miss_latency::total 49364.944596                       # average overall miss latency
system.dcache.blocked_cycles::no_mshrs              0                       # number of cycles access was blocked
system.dcache.blocked_cycles::no_targets            0                       # number of cycles access was blocked
system.dcache.blocked::no_mshrs                     0                       # number of cycles access was blocked
system.dcache.blocked::no_targets                   0                       # number of cycles access was blocked
system.dcache.avg_blocked_cycles::no_mshrs          nan                       # average number of cycles each access was blocked
system.dcache.avg_blocked_cycles::no_targets          nan                       # average number of cycles each access was blocked
system.dcache.writebacks::.writebacks            5018                       # number of writebacks
system.dcache.writebacks::total                  5018                       # number of writebacks
system.dcache.demand_mshr_misses::.cpu.data         6872                       # number of demand (read+write) MSHR misses
system.dcache.demand_mshr_misses::total          6872                       # number of demand (read+write) MSHR misses
system.dcache.overall_mshr_misses::.cpu.data         6949                       # number of overall MSHR misses
system.dcache.overall_mshr_misses::total         6949                       # number of overall MSHR misses
system.dcache.demand_mshr_miss_latency::.cpu.data    323551000                       # number of demand (read+write) MSHR miss cycles
[...]
system.dcache.tags.age_task_id_blocks_1024::2          176                       # Occupied blocks per task id
system.dcache.tags.age_task_id_blocks_1024::3           41                       # Occupied blocks per task id
system.dcache.tags.occ_task_id_percent::1024            1                       # Percentage of cache occupancy per task id
system.dcache.tags.tag_accesses               2227847                       # Number of tag accesses
system.dcache.tags.data_accesses              2227847                       # Number of data accesses
system.dcache.tags.power_state.pwrStateResidencyTicks::UNDEFINED  28505128000                       # Cumulative time (in ticks) in various power states
system.cache_large.blocked_cycles::no_mshrs            0                       # number of cycles access was blocked
system.cache_large.blocked_cycles::no_targets            0                       # number of cycles access was blocked
system.cache_large.blocked::no_mshrs                0                       # number of cycles access was blocked
system.cache_large.blocked::no_targets              0                       # number of cycles access was blocked
system.cache_large.avg_blocked_cycles::no_mshrs          nan                       # average number of cycles each access was blocked
system.cache_large.avg_blocked_cycles::no_targets          nan                       # average number of cycles each access was blocked
system.cache_large.replacements                     0                       # number of replacements
system.cache_large.power_state.pwrStateResidencyTicks::UNDEFINED  28505128000                       # Cumulative time (in ticks) in various power states
system.cache_large.tags.tagsinuse                   0                       # Cycle average of tags in use
system.cache_large.tags.total_refs                  0                       # Total number of references to valid blocks.
system.cache_large.tags.sampled_refs                0                       # Sample count of references to valid blocks.
system.cache_large.tags.avg_refs                  nan                       # Average number of references to valid blocks.
system.cache_large.tags.warmup_cycle                0                       # Cycle when the warmup percentage was hit.
system.cache_large.tags.tag_accesses                0                       # Number of tag accesses
system.cache_large.tags.data_accesses               0                       # Number of data accesses
system.cache_large.tags.power_state.pwrStateResidencyTicks::UNDEFINED  28505128000                       # Cumulative time (in ticks) in various power states
system.l2cache.demand_hits::.cpu.inst          141505                       # number of demand (read+write) hits
system.l2cache.demand_hits::.cpu.data           18688                       # number of demand (read+write) hits
system.l2cache.demand_hits::total              160193                       # number of demand (read+write) hits
system.l2cache.overall_hits::.cpu.inst         141505                       # number of overall hits
system.l2cache.overall_hits::.cpu.data          18688                       # number of overall hits
system.l2cache.overall_hits::total             160193                       # number of overall hits
system.l2cache.demand_misses::.cpu.inst        104909                       # number of demand (read+write) misses
system.l2cache.demand_misses::.cpu.data         15351                       # number of demand (read+write) misses
system.l2cache.demand_misses::total            120260                       # number of demand (read+write) misses
system.l2cache.overall_misses::.cpu.inst       104909                       # number of overall misses
system.l2cache.overall_misses::.cpu.data        15351                       # number of overall misses
system.l2cache.overall_misses::total           120260                       # number of overall misses
system.l2cache.demand_miss_latency::.cpu.inst   1685662000                       # number of demand (read+write) miss cycles
system.l2cache.demand_miss_latency::.cpu.data    701959000                       # number of demand (read+write) miss cycles
system.l2cache.demand_miss_latency::total   2387621000                       # number of demand (read+write) miss cycles
system.l2cache.overall_miss_latency::.cpu.inst   1685662000                       # number of overall miss cycles
system.l2cache.overall_miss_latency::.cpu.data    701959000                       # number of overall miss cycles
system.l2cache.overall_miss_latency::total   2387621000                       # number of overall miss cycles
system.l2cache.demand_accesses::.cpu.inst       246414                       # number of demand (read+write) accesses
system.l2cache.demand_accesses::.cpu.data        34039                       # number of demand (read+write) accesses
system.l2cache.demand_accesses::total          280453                       # number of demand (read+write) accesses
system.l2cache.overall_accesses::.cpu.inst       246414                       # number of overall (read+write) accesses
system.l2cache.overall_accesses::.cpu.data        34039                       # number of overall (read+write) accesses
system.l2cache.overall_accesses::total         280453                       # number of overall (read+write) accesses
system.l2cache.demand_miss_rate::.cpu.inst     0.425743                       # miss rate for demand accesses
system.l2cache.demand_miss_rate::.cpu.data     0.450983                       # miss rate for demand accesses
system.l2cache.demand_miss_rate::total       0.428806                       # miss rate for demand accesses
system.l2cache.overall_miss_rate::.cpu.inst     0.425743                       # miss rate for overall accesses
system.l2cache.overall_miss_rate::.cpu.data     0.450983                       # miss rate for overall accesses
system.l2cache.overall_miss_rate::total      0.428806                       # miss rate for overall accesses
system.l2cache.demand_avg_miss_latency::.cpu.inst 16067.849279                       # average overall miss latency
system.l2cache.demand_avg_miss_latency::.cpu.data 45727.249039                       # average overall miss latency
system.l2cache.demand_avg_miss_latency::total 19853.825046                       # average overall miss latency
system.l2cache.overall_avg_miss_latency::.cpu.inst 16067.849279                       # average overall miss latency
system.l2cache.overall_avg_miss_latency::.cpu.data 45727.249039                       # average overall miss latency
system.l2cache.overall_avg_miss_latency::total 19853.825046                       # average overall miss latency
system.l2cache.blocked_cycles::no_mshrs             0                       # number of cycles access was blocked
system.l2cache.blocked_cycles::no_targets            0                       # number of cycles access was blocked
system.l2cache.blocked::no_mshrs                    0                       # number of cycles access was blocked
system.l2cache.blocked::no_targets                  0                       # number of cycles access was blocked
system.l2cache.avg_blocked_cycles::no_mshrs          nan                       # average number of cycles each access was blocked
system.l2cache.avg_blocked_cycles::no_targets          nan                       # average number of cycles each access was blocked
system.l2cache.writebacks::.writebacks          12336                       # number of writebacks
system.l2cache.writebacks::total                12336                       # number of writebacks
system.l2cache.demand_mshr_misses::.cpu.inst       104909                       # number of demand (read+write) MSHR misses
system.l2cache.demand_mshr_misses::.cpu.data        15351                       # number of demand (read+write) MSHR misses
system.l2cache.demand_mshr_misses::total       120260                       # number of demand (read+write) MSHR misses
system.l2cache.overall_mshr_misses::.cpu.inst       104909                       # number of overall MSHR misses
system.l2cache.overall_mshr_misses::.cpu.data        15351                       # number of overall MSHR misses
system.l2cache.overall_mshr_misses::total       120260                       # number of overall MSHR misses
system.l2cache.demand_mshr_miss_latency::.cpu.inst   1475844000                       # number of demand (read+write) MSHR miss cycles
system.l2cache.demand_mshr_miss_latency::.cpu.data    671257000                       # number of demand (read+write) MSHR miss cycles
system.l2cache.demand_mshr_miss_latency::total   2147101000                       # number of demand (read+write) MSHR miss cycles
system.l2cache.overall_mshr_miss_latency::.cpu.inst   1475844000                       # number of overall MSHR miss cycles
system.l2cache.overall_mshr_miss_latency::.cpu.data    671257000                       # number of overall MSHR miss cycles
system.l2cache.overall_mshr_miss_latency::total   2147101000                       # number of overall MSHR miss cycles
system.l2cache.demand_mshr_miss_rate::.cpu.inst     0.425743                       # mshr miss rate for demand accesses
system.l2cache.demand_mshr_miss_rate::.cpu.data     0.450983                       # mshr miss rate for demand accesses
system.l2cache.demand_mshr_miss_rate::total     0.428806                       # mshr miss rate for demand accesses
system.l2cache.overall_mshr_miss_rate::.cpu.inst     0.425743                       # mshr miss rate for overall accesses
system.l2cache.overall_mshr_miss_rate::.cpu.data     0.450983                       # mshr miss rate for overall accesses
system.l2cache.overall_mshr_miss_rate::total     0.428806                       # mshr miss rate for overall accesses
system.l2cache.demand_avg_mshr_miss_latency::.cpu.inst 14067.849279                       # average overall mshr miss latency
system.l2cache.demand_avg_mshr_miss_latency::.cpu.data 43727.249039                       # average overall mshr miss latency
system.l2cache.demand_avg_mshr_miss_latency::total 17853.825046                       # average overall mshr miss latency
system.l2cache.overall_avg_mshr_miss_latency::.cpu.inst 14067.849279                       # average overall mshr miss latency
system.l2cache.overall_avg_mshr_miss_latency::.cpu.data 43727.249039                       # average overall mshr miss latency
system.l2cache.overall_avg_mshr_miss_latency::total 17853.825046                       # average overall mshr miss latency
system.l2cache.replacements                    128311                       # number of replacements
system.l2cache.ReadReq_hits::.cpu.inst         141505                       # number of ReadReq hits
system.l2cache.ReadReq_hits::.cpu.data          18688                       # number of ReadReq hits
system.l2cache.ReadReq_hits::total             160193                       # number of ReadReq hits
system.l2cache.ReadReq_misses::.cpu.inst       104909                       # number of ReadReq misses
system.l2cache.ReadReq_misses::.cpu.data        15351                       # number of ReadReq misses
system.l2cache.ReadReq_misses::total           120260                       # number of ReadReq misses
system.l2cache.ReadReq_miss_latency::.cpu.inst   1685662000                       # number of ReadReq miss cycles
system.l2cache.ReadReq_miss_latency::.cpu.data    701959000                       # number of ReadReq miss cycles
system.l2cache.ReadReq_miss_latency::total   2387621000                       # number of ReadReq miss cycles
system.l2cache.ReadReq_accesses::.cpu.inst       246414                       # number of ReadReq accesses(hits+misses)
system.l2cache.ReadReq_accesses::.cpu.data        34039                       # number of ReadReq accesses(hits+misses)
system.l2cache.ReadReq_accesses::total         280453                       # number of ReadReq accesses(hits+misses)
system.l2cache.ReadReq_miss_rate::.cpu.inst     0.425743                       # miss rate for ReadReq accesses
system.l2cache.ReadReq_miss_rate::.cpu.data     0.450983                       # miss rate for ReadReq accesses
system.l2cache.ReadReq_miss_rate::total      0.428806                       # miss rate for ReadReq accesses
system.l2cache.ReadReq_avg_miss_latency::.cpu.inst 16067.849279                       # average ReadReq miss latency
system.l2cache.ReadReq_avg_miss_latency::.cpu.data 45727.249039                       # average ReadReq miss latency
system.l2cache.ReadReq_avg_miss_latency::total 19853.825046                       # average ReadReq miss latency
system.l2cache.ReadReq_mshr_misses::.cpu.inst       104909                       # number of ReadReq MSHR misses
system.l2cache.ReadReq_mshr_misses::.cpu.data        15351                       # number of ReadReq MSHR misses
system.l2cache.ReadReq_mshr_misses::total       120260                       # number of ReadReq MSHR misses
system.l2cache.ReadReq_mshr_miss_latency::.cpu.inst   1475844000                       # number of ReadReq MSHR miss cycles
system.l2cache.ReadReq_mshr_miss_latency::.cpu.data    671257000                       # number of ReadReq MSHR miss cycles
system.l2cache.ReadReq_mshr_miss_latency::total   2147101000                       # number of ReadReq MSHR miss cycles
system.l2cache.ReadReq_mshr_miss_rate::.cpu.inst     0.425743                       # mshr miss rate for ReadReq accesses
system.l2cache.ReadReq_mshr_miss_rate::.cpu.data     0.450983                       # mshr miss rate for ReadReq accesses
system.l2cache.ReadReq_mshr_miss_rate::total     0.428806                       # mshr miss rate for ReadReq accesses
system.l2cache.ReadReq_avg_mshr_miss_latency::.cpu.inst 14067.849279                       # average ReadReq mshr miss latency
system.l2cache.ReadReq_avg_mshr_miss_latency::.cpu.data 43727.249039                       # average ReadReq mshr miss latency
system.l2cache.ReadReq_avg_mshr_miss_latency::total 17853.825046                       # average ReadReq mshr miss latency
system.l2cache.WritebackDirty_hits::.writebacks        19697                       # number of WritebackDirty hits
system.l2cache.WritebackDirty_hits::total        19697                       # number of WritebackDirty hits
system.l2cache.WritebackDirty_accesses::.writebacks        19697                       # number of WritebackDirty accesses(hits+misses)
system.l2cache.WritebackDirty_accesses::total        19697                       # number of WritebackDirty accesses(hits+misses)
system.l2cache.power_state.pwrStateResidencyTicks::UNDEFINED  28505128000                       # Cumulative time (in ticks) in various power states
system.l2cache.tags.tagsinuse              510.510906                       # Cycle average of tags in use
system.l2cache.tags.total_refs                 300150                       # Total number of references to valid blocks.
system.l2cache.tags.sampled_refs               128823                       # Sample count of references to valid blocks.
system.l2cache.tags.avg_refs                 2.329941                       # Average number of references to valid blocks.
system.l2cache.tags.warmup_cycle                78000                       # Cycle when the warmup percentage was hit.
system.l2cache.tags.occ_blocks::.writebacks    95.198500                       # Average occupied blocks per requestor
system.l2cache.tags.occ_blocks::.cpu.inst   207.789649                       # Average occupied blocks per requestor
system.l2cache.tags.occ_blocks::.cpu.data   207.522756                       # Average occupied blocks per requestor
system.l2cache.tags.occ_percent::.writebacks     0.185935                       # Average percentage of cache occupancy
system.l2cache.tags.occ_percent::.cpu.inst     0.405839                       # Average percentage of cache occupancy
system.l2cache.tags.occ_percent::.cpu.data     0.405318                       # Average percentage of cache occupancy
system.l2cache.tags.occ_percent::total       0.997092                       # Average percentage of cache occupancy
system.l2cache.tags.occ_task_id_blocks::1024          512                       # Occupied blocks per task id
system.l2cache.tags.age_task_id_blocks_1024::0           44                       # Occupied blocks per task id
system.l2cache.tags.age_task_id_blocks_1024::1           68                       # Occupied blocks per task id
system.l2cache.tags.age_task_id_blocks_1024::2          250                       # Occupied blocks per task id
system.l2cache.tags.age_task_id_blocks_1024::3          150                       # Occupied blocks per task id
system.l2cache.tags.occ_task_id_percent::1024            1                       # Percentage of cache occupancy per task id
system.l2cache.tags.tag_accesses               428973                       # Number of tag accesses
system.l2cache.tags.data_accesses              428973                       # Number of data accesses
system.l2cache.tags.power_state.pwrStateResidencyTicks::UNDEFINED  28505128000                       # Cumulative time (in ticks) in various power states
system.l2bar.trans_dist::ReadReq               280453                       # Transaction distribution
system.l2bar.trans_dist::ReadResp              280453                       # Transaction distribution
system.l2bar.trans_dist::WritebackDirty         19697                       # Transaction distribution
system.l2bar.pkt_count_system.dcache.mem_side::system.l2cache.cpu_side        87775                       # Packet count per connected master and slave (bytes)
system.l2bar.pkt_count_system.icache.mem_side::system.l2cache.cpu_side       492828                       # Packet count per connected master and slave (bytes)
system.l2bar.pkt_count::total                  580603                       # Packet count per connected master and slave (bytes)
system.l2bar.pkt_size_system.dcache.mem_side::system.l2cache.cpu_side      3439104                       # Cumulative packet size per connected master and slave (bytes)
system.l2bar.pkt_size_system.icache.mem_side::system.l2cache.cpu_side     15770496                       # Cumulative packet size per connected master and slave (bytes)
system.l2bar.pkt_size::total                 19209600                       # Cumulative packet size per connected master and slave (bytes)
system.l2bar.respLayer1.occupancy          1232070000                       # Layer occupancy (ticks)
system.l2bar.respLayer1.utilization               4.3                       # Layer utilization (%)
system.l2bar.reqLayer0.occupancy            378938000                       # Layer occupancy (ticks)
system.l2bar.reqLayer0.utilization                1.3                       # Layer utilization (%)
system.l2bar.respLayer0.occupancy           170195000                       # Layer occupancy (ticks)
system.l2bar.respLayer0.utilization               0.6                       # Layer utilization (%)
system.l2bar.power_state.pwrStateResidencyTicks::UNDEFINED  28505128000                       # Cumulative time (in ticks) in various power states
system.cpu.dtb.walker.power_state.pwrStateResidencyTicks::UNDEFINED  28505128000                       # Cumulative time (in ticks) in various power states
system.cpu.interrupts.clk_domain.clock          16000                       # Clock period in ticks
system.cpu.itb.walker.power_state.pwrStateResidencyTicks::UNDEFINED  28505128000                       # Cumulative time (in ticks) in various power states
system.cpu.power_state.numTransitions               1                       # Number of power state transitions
system.cpu.power_state.pwrStateResidencyTicks::ON  28505128000                       # Cumulative time (in ticks) in various power states

---------- End Simulation Statistics   ----------
