
---------- Begin Simulation Statistics ----------
final_tick                                13094090000                       # Number of ticks from beginning of simulation (restored from checkpoints and never reset)
host_inst_rate                                  59880                       # Simulator instruction rate (inst/s)
host_mem_usage                               34196092                       # Number of bytes of host memory used
host_op_rate                                    71376                       # Simulator op (including micro ops) rate (op/s)
host_seconds                                    16.70                       # Real time elapsed on the host
host_tick_rate                              784055164                       # Simulator tick rate (ticks/s)
sim_freq                                 1000000000000                       # Frequency of simulated ticks
sim_insts                                     1000002                       # Number of instructions simulated
sim_ops                                       1192012                       # Number of ops (including micro ops) simulated
sim_seconds                                  0.013094                       # Number of seconds simulated
sim_ticks                                 13094090000                       # Number of ticks simulated
system.cpu.Branches                             48150                       # Number of branches fetched
system.cpu.committedInsts                     1000002                       # Number of instructions committed
system.cpu.committedOps                       1192012                       # Number of ops (including micro ops) committed
system.cpu.dtb.rdAccesses                        4895                       # TLB accesses on read requests
system.cpu.dtb.rdMisses                            16                       # TLB misses on read requests
system.cpu.dtb.wrAccesses                      855884                       # TLB accesses on write requests
system.cpu.dtb.wrMisses                          3339                       # TLB misses on write requests
system.cpu.idle_fraction                            0                       # Percentage of idle cycles
system.cpu.itb.rdAccesses                           0                       # TLB accesses on read requests
system.cpu.itb.rdMisses                             0                       # TLB misses on read requests
system.cpu.itb.wrAccesses                     1562856                       # TLB accesses on write requests
system.cpu.itb.wrMisses                            47                       # TLB misses on write requests
system.cpu.not_idle_fraction                        1                       # Percentage of non-idle cycles
system.cpu.numCycles                         13094079                       # number of cpu cycles simulated
system.cpu.numWorkItemsCompleted                    0                       # number of work items this cpu completed
system.cpu.numWorkItemsStarted                      0                       # number of work items this cpu started
system.cpu.num_busy_cycles                   13094079                       # Number of busy cycles
system.cpu.num_cc_register_reads               239251                       # number of times the CC registers were read
system.cpu.num_cc_register_writes              183310                       # number of times the CC registers were written
system.cpu.num_conditional_control_insts        46871                       # number of instructions that are conditional controls
system.cpu.num_fp_alu_accesses                 809444                       # Number of float alu accesses
system.cpu.num_fp_insts                        809444                       # number of float instructions
system.cpu.num_fp_register_reads               809956                       # number of times the floating registers were read
system.cpu.num_fp_register_writes                 609                       # number of times the floating registers were written
system.cpu.num_func_calls                         931                       # number of times a function call or return occured
system.cpu.num_idle_cycles                          0                       # Number of idle cycles
system.cpu.num_int_alu_accesses               1192820                       # Number of integer alu accesses
system.cpu.num_int_insts                      1192820                       # number of integer instructions
system.cpu.num_int_register_reads             3023468                       # number of times the integer registers were read
system.cpu.num_int_register_writes             288974                       # number of times the integer registers were written
system.cpu.num_load_insts                        4880                       # Number of load instructions
system.cpu.num_mem_refs                        860763                       # number of memory refs
system.cpu.num_store_insts                     855883                       # Number of store instructions
system.cpu.num_vec_alu_accesses                     0                       # Number of vector alu accesses
system.cpu.num_vec_insts                            0                       # number of vector instructions
system.cpu.num_vec_register_reads                   0                       # number of times the vector registers were read
system.cpu.num_vec_register_writes                  0                       # number of times the vector registers were written
system.cpu.op_class::No_OpClass                   186      0.02%      0.02% # Class of executed instruction
system.cpu.op_class::IntAlu                    332079     27.82%     27.84% # Class of executed instruction
system.cpu.op_class::IntMult                       29      0.00%     27.84% # Class of executed instruction
system.cpu.op_class::IntDiv                        70      0.01%     27.84% # Class of executed instruction
system.cpu.op_class::FloatAdd                      19      0.00%     27.85% # Class of executed instruction
system.cpu.op_class::FloatCmp                       0      0.00%     27.85% # Class of executed instruction
system.cpu.op_class::FloatCvt                       0      0.00%     27.85% # Class of executed instruction
system.cpu.op_class::FloatMult                      0      0.00%     27.85% # Class of executed instruction
system.cpu.op_class::FloatMultAcc                   0      0.00%     27.85% # Class of executed instruction
system.cpu.op_class::FloatDiv                       0      0.00%     27.85% # Class of executed instruction
system.cpu.op_class::FloatMisc                      0      0.00%     27.85% # Class of executed instruction
system.cpu.op_class::FloatSqrt                      0      0.00%     27.85% # Class of executed instruction
system.cpu.op_class::SimdAdd                        0      0.00%     27.85% # Class of executed instruction
system.cpu.op_class::SimdAddAcc                     0      0.00%     27.85% # Class of executed instruction
system.cpu.op_class::SimdAlu                      152      0.01%     27.86% # Class of executed instruction
system.cpu.op_class::SimdCmp                        0      0.00%     27.86% # Class of executed instruction
system.cpu.op_class::SimdCvt                      158      0.01%     27.87% # Class of executed instruction
system.cpu.op_class::SimdMisc                     221      0.02%     27.89% # Class of executed instruction
system.cpu.op_class::SimdMult                       0      0.00%     27.89% # Class of executed instruction
system.cpu.op_class::SimdMultAcc                    0      0.00%     27.89% # Class of executed instruction
system.cpu.op_class::SimdShift                      0      0.00%     27.89% # Class of executed instruction
system.cpu.op_class::SimdShiftAcc                   0      0.00%     27.89% # Class of executed instruction
system.cpu.op_class::SimdDiv                        0      0.00%     27.89% # Class of executed instruction
system.cpu.op_class::SimdSqrt                       0      0.00%     27.89% # Class of executed instruction
system.cpu.op_class::SimdFloatAdd                   0      0.00%     27.89% # Class of executed instruction
system.cpu.op_class::SimdFloatAlu                   0      0.00%     27.89% # Class of executed instruction
system.cpu.op_class::SimdFloatCmp                   0      0.00%     27.89% # Class of executed instruction
system.cpu.op_class::SimdFloatCvt                   2      0.00%     27.89% # Class of executed instruction
system.cpu.op_class::SimdFloatDiv                   0      0.00%     27.89% # Class of executed instruction
system.cpu.op_class::SimdFloatMisc                  0      0.00%     27.89% # Class of executed instruction
system.cpu.op_class::SimdFloatMult                  0      0.00%     27.89% # Class of executed instruction
system.cpu.op_class::SimdFloatMultAcc               0      0.00%     27.89% # Class of executed instruction
system.cpu.op_class::SimdFloatSqrt                  0      0.00%     27.89% # Class of executed instruction
system.cpu.op_class::SimdReduceAdd                  0      0.00%     27.89% # Class of executed instruction
system.cpu.op_class::SimdReduceAlu                  0      0.00%     27.89% # Class of executed instruction
system.cpu.op_class::SimdReduceCmp                  0      0.00%     27.89% # Class of executed instruction
system.cpu.op_class::SimdFloatReduceAdd             0      0.00%     27.89% # Class of executed instruction
system.cpu.op_class::SimdFloatReduceCmp             0      0.00%     27.89% # Class of executed instruction
system.cpu.op_class::SimdAes                        0      0.00%     27.89% # Class of executed instruction
system.cpu.op_class::SimdAesMix                     0      0.00%     27.89% # Class of executed instruction
system.cpu.op_class::SimdSha1Hash                   0      0.00%     27.89% # Class of executed instruction
system.cpu.op_class::SimdSha1Hash2                  0      0.00%     27.89% # Class of executed instruction
system.cpu.op_class::SimdSha256Hash                 0      0.00%     27.89% # Class of executed instruction
system.cpu.op_class::SimdSha256Hash2                0      0.00%     27.89% # Class of executed instruction
system.cpu.op_class::SimdShaSigma2                  0      0.00%     27.89% # Class of executed instruction
system.cpu.op_class::SimdShaSigma3                  0      0.00%     27.89% # Class of executed instruction
system.cpu.op_class::SimdPredAlu                    0      0.00%     27.89% # Class of executed instruction
system.cpu.op_class::MemRead                     4778      0.40%     28.29% # Class of executed instruction
system.cpu.op_class::MemWrite                   47159      3.95%     32.24% # Class of executed instruction
system.cpu.op_class::FloatMemRead                 102      0.01%     32.25% # Class of executed instruction
system.cpu.op_class::FloatMemWrite             808724     67.75%    100.00% # Class of executed instruction
system.cpu.op_class::IprAccess                      0      0.00%    100.00% # Class of executed instruction
system.cpu.op_class::InstPrefetch                   0      0.00%    100.00% # Class of executed instruction
system.cpu.op_class::total                    1193679                       # Class of executed instruction
system.cpu.workload.numSyscalls                   159                       # Number of system calls
system.dynamic_cache.flushTicks                     0                       # Ticks taken to flush
system.dynamic_cache.numFlushes                     0                       # Number of Flushes Taken
system.cache_small.demand_hits::.cpu.inst           70                       # number of demand (read+write) hits
system.cache_small.demand_hits::.cpu.data           12                       # number of demand (read+write) hits
system.cache_small.demand_hits::total              82                       # number of demand (read+write) hits
system.cache_small.overall_hits::.cpu.inst           70                       # number of overall hits
system.cache_small.overall_hits::.cpu.data           12                       # number of overall hits
system.cache_small.overall_hits::total             82                       # number of overall hits
system.cache_small.demand_misses::.cpu.inst          507                       # number of demand (read+write) misses
system.cache_small.demand_misses::.cpu.data       106600                       # number of demand (read+write) misses
system.cache_small.demand_misses::total        107107                       # number of demand (read+write) misses
system.cache_small.overall_misses::.cpu.inst          507                       # number of overall misses
system.cache_small.overall_misses::.cpu.data       106600                       # number of overall misses
system.cache_small.overall_misses::total       107107                       # number of overall misses
system.cache_small.demand_miss_latency::.cpu.inst     29865000                       # number of demand (read+write) miss cycles
system.cache_small.demand_miss_latency::.cpu.data   6609077000                       # number of demand (read+write) miss cycles
system.cache_small.demand_miss_latency::total   6638942000                       # number of demand (read+write) miss cycles
system.cache_small.overall_miss_latency::.cpu.inst     29865000                       # number of overall miss cycles
system.cache_small.overall_miss_latency::.cpu.data   6609077000                       # number of overall miss cycles
system.cache_small.overall_miss_latency::total   6638942000                       # number of overall miss cycles
system.cache_small.demand_accesses::.cpu.inst          577                       # number of demand (read+write) accesses
system.cache_small.demand_accesses::.cpu.data       106612                       # number of demand (read+write) accesses
system.cache_small.demand_accesses::total       107189                       # number of demand (read+write) accesses
system.cache_small.overall_accesses::.cpu.inst          577                       # number of overall (read+write) accesses
system.cache_small.overall_accesses::.cpu.data       106612                       # number of overall (read+write) accesses
system.cache_small.overall_accesses::total       107189                       # number of overall (read+write) accesses
system.cache_small.demand_miss_rate::.cpu.inst     0.878683                       # miss rate for demand accesses
system.cache_small.demand_miss_rate::.cpu.data     0.999887                       # miss rate for demand accesses
system.cache_small.demand_miss_rate::total     0.999235                       # miss rate for demand accesses
system.cache_small.overall_miss_rate::.cpu.inst     0.878683                       # miss rate for overall accesses
system.cache_small.overall_miss_rate::.cpu.data     0.999887                       # miss rate for overall accesses
system.cache_small.overall_miss_rate::total     0.999235                       # miss rate for overall accesses
system.cache_small.demand_avg_miss_latency::.cpu.inst 58905.325444                       # average overall miss latency
system.cache_small.demand_avg_miss_latency::.cpu.data 61998.846154                       # average overall miss latency
system.cache_small.demand_avg_miss_latency::total 61984.202713                       # average overall miss latency
system.cache_small.overall_avg_miss_latency::.cpu.inst 58905.325444                       # average overall miss latency
system.cache_small.overall_avg_miss_latency::.cpu.data 61998.846154                       # average overall miss latency
system.cache_small.overall_avg_miss_latency::total 61984.202713                       # average overall miss latency
system.cache_small.blocked_cycles::no_mshrs            0                       # number of cycles access was blocked
system.cache_small.blocked_cycles::no_targets            0                       # number of cycles access was blocked
system.cache_small.blocked::no_mshrs                0                       # number of cycles access was blocked
system.cache_small.blocked::no_targets              0                       # number of cycles access was blocked
system.cache_small.avg_blocked_cycles::no_mshrs          nan                       # average number of cycles each access was blocked
system.cache_small.avg_blocked_cycles::no_targets          nan                       # average number of cycles each access was blocked
system.cache_small.writebacks::.writebacks       102440                       # number of writebacks
system.cache_small.writebacks::total           102440                       # number of writebacks
system.cache_small.demand_mshr_misses::.cpu.inst          507                       # number of demand (read+write) MSHR misses
system.cache_small.demand_mshr_misses::.cpu.data       106600                       # number of demand (read+write) MSHR misses
system.cache_small.demand_mshr_misses::total       107107                       # number of demand (read+write) MSHR misses
system.cache_small.overall_mshr_misses::.cpu.inst          507                       # number of overall MSHR misses
system.cache_small.overall_mshr_misses::.cpu.data       106600                       # number of overall MSHR misses
system.cache_small.overall_mshr_misses::total       107107                       # number of overall MSHR misses
system.cache_small.demand_mshr_miss_latency::.cpu.inst     28851000                       # number of demand (read+write) MSHR miss cycles
system.cache_small.demand_mshr_miss_latency::.cpu.data   6395877000                       # number of demand (read+write) MSHR miss cycles
system.cache_small.demand_mshr_miss_latency::total   6424728000                       # number of demand (read+write) MSHR miss cycles
system.cache_small.overall_mshr_miss_latency::.cpu.inst     28851000                       # number of overall MSHR miss cycles
system.cache_small.overall_mshr_miss_latency::.cpu.data   6395877000                       # number of overall MSHR miss cycles
system.cache_small.overall_mshr_miss_latency::total   6424728000                       # number of overall MSHR miss cycles
system.cache_small.demand_mshr_miss_rate::.cpu.inst     0.878683                       # mshr miss rate for demand accesses
system.cache_small.demand_mshr_miss_rate::.cpu.data     0.999887                       # mshr miss rate for demand accesses
system.cache_small.demand_mshr_miss_rate::total     0.999235                       # mshr miss rate for demand accesses
system.cache_small.overall_mshr_miss_rate::.cpu.inst     0.878683                       # mshr miss rate for overall accesses
system.cache_small.overall_mshr_miss_rate::.cpu.data     0.999887                       # mshr miss rate for overall accesses
system.cache_small.overall_mshr_miss_rate::total     0.999235                       # mshr miss rate for overall accesses
system.cache_small.demand_avg_mshr_miss_latency::.cpu.inst 56905.325444                       # average overall mshr miss latency
system.cache_small.demand_avg_mshr_miss_latency::.cpu.data 59998.846154                       # average overall mshr miss latency
system.cache_small.demand_avg_mshr_miss_latency::total 59984.202713                       # average overall mshr miss latency
system.cache_small.overall_avg_mshr_miss_latency::.cpu.inst 56905.325444                       # average overall mshr miss latency
system.cache_small.overall_avg_mshr_miss_latency::.cpu.data 59998.846154                       # average overall mshr miss latency
system.cache_small.overall_avg_mshr_miss_latency::total 59984.202713                       # average overall mshr miss latency
system.cache_small.replacements                103023                       # number of replacements
system.cache_small.ReadReq_hits::.cpu.inst           70                       # number of ReadReq hits
system.cache_small.ReadReq_hits::.cpu.data           12                       # number of ReadReq hits
system.cache_small.ReadReq_hits::total             82                       # number of ReadReq hits
system.cache_small.ReadReq_misses::.cpu.inst          507                       # number of ReadReq misses
system.cache_small.ReadReq_misses::.cpu.data       106600                       # number of ReadReq misses
system.cache_small.ReadReq_misses::total       107107                       # number of ReadReq misses
system.cache_small.ReadReq_miss_latency::.cpu.inst     29865000                       # number of ReadReq miss cycles
system.cache_small.ReadReq_miss_latency::.cpu.data   6609077000                       # number of ReadReq miss cycles
system.cache_small.ReadReq_miss_latency::total   6638942000                       # number of ReadReq miss cycles
system.cache_small.ReadReq_accesses::.cpu.inst          577                       # number of ReadReq accesses(hits+misses)
system.cache_small.ReadReq_accesses::.cpu.data       106612                       # number of ReadReq accesses(hits+misses)
system.cache_small.ReadReq_accesses::total       107189                       # number of ReadReq accesses(hits+misses)
system.cache_small.ReadReq_miss_rate::.cpu.inst     0.878683                       # miss rate for ReadReq accesses
system.cache_small.ReadReq_miss_rate::.cpu.data     0.999887                       # miss rate for ReadReq accesses
system.cache_small.ReadReq_miss_rate::total     0.999235                       # miss rate for ReadReq accesses
system.cache_small.ReadReq_avg_miss_latency::.cpu.inst 58905.325444                       # average ReadReq miss latency
system.cache_small.ReadReq_avg_miss_latency::.cpu.data 61998.846154                       # average ReadReq miss latency
system.cache_small.ReadReq_avg_miss_latency::total 61984.202713                       # average ReadReq miss latency
system.cache_small.ReadReq_mshr_misses::.cpu.inst          507                       # number of ReadReq MSHR misses
system.cache_small.ReadReq_mshr_misses::.cpu.data       106600                       # number of ReadReq MSHR misses
system.cache_small.ReadReq_mshr_misses::total       107107                       # number of ReadReq MSHR misses
system.cache_small.ReadReq_mshr_miss_latency::.cpu.inst     28851000                       # number of ReadReq MSHR miss cycles
system.cache_small.ReadReq_mshr_miss_latency::.cpu.data   6395877000                       # number of ReadReq MSHR miss cycles
system.cache_small.ReadReq_mshr_miss_latency::total   6424728000                       # number of ReadReq MSHR miss cycles
system.cache_small.ReadReq_mshr_miss_rate::.cpu.inst     0.878683                       # mshr miss rate for ReadReq accesses
system.cache_small.ReadReq_mshr_miss_rate::.cpu.data     0.999887                       # mshr miss rate for ReadReq accesses
system.cache_small.ReadReq_mshr_miss_rate::total     0.999235                       # mshr miss rate for ReadReq accesses
system.cache_small.ReadReq_avg_mshr_miss_latency::.cpu.inst 56905.325444                       # average ReadReq mshr miss latency
system.cache_small.ReadReq_avg_mshr_miss_latency::.cpu.data 59998.846154                       # average ReadReq mshr miss latency
system.cache_small.ReadReq_avg_mshr_miss_latency::total 59984.202713                       # average ReadReq mshr miss latency
system.cache_small.WritebackDirty_hits::.writebacks       106040                       # number of WritebackDirty hits
system.cache_small.WritebackDirty_hits::total       106040                       # number of WritebackDirty hits
system.cache_small.WritebackDirty_accesses::.writebacks       106040                       # number of WritebackDirty accesses(hits+misses)
system.cache_small.WritebackDirty_accesses::total       106040                       # number of WritebackDirty accesses(hits+misses)
system.cache_small.power_state.pwrStateResidencyTicks::UNDEFINED  13094090000                       # Cumulative time (in ticks) in various power states
system.cache_small.tags.tagsinuse         3999.860940                       # Cycle average of tags in use
system.cache_small.tags.total_refs             205549                       # Total number of references to valid blocks.
system.cache_small.tags.sampled_refs           103023                       # Sample count of references to valid blocks.
system.cache_small.tags.avg_refs             1.995176                       # Average number of references to valid blocks.
system.cache_small.tags.warmup_cycle            76000                       # Cycle when the warmup percentage was hit.
system.cache_small.tags.occ_blocks::.writebacks     0.331156                       # Average occupied blocks per requestor
system.cache_small.tags.occ_blocks::.cpu.inst    11.457950                       # Average occupied blocks per requestor
system.cache_small.tags.occ_blocks::.cpu.data  3988.071833                       # Average occupied blocks per requestor
system.cache_small.tags.occ_percent::.writebacks     0.000081                       # Average percentage of cache occupancy
system.cache_small.tags.occ_percent::.cpu.inst     0.002797                       # Average percentage of cache occupancy
system.cache_small.tags.occ_percent::.cpu.data     0.973650                       # Average percentage of cache occupancy
system.cache_small.tags.occ_percent::total     0.976529                       # Average percentage of cache occupancy
system.cache_small.tags.occ_task_id_blocks::1024         4096                       # Occupied blocks per task id
system.cache_small.tags.age_task_id_blocks_1024::0           82                       # Occupied blocks per task id
system.cache_small.tags.age_task_id_blocks_1024::1          738                       # Occupied blocks per task id
system.cache_small.tags.age_task_id_blocks_1024::2         3276                       # Occupied blocks per task id
system.cache_small.tags.occ_task_id_percent::1024            1                       # Percentage of cache occupancy per task id
system.cache_small.tags.tag_accesses           320348                       # Number of tag accesses
system.cache_small.tags.data_accesses          320348                       # Number of data accesses
system.cache_small.tags.power_state.pwrStateResidencyTicks::UNDEFINED  13094090000                       # Cumulative time (in ticks) in various power states
system.icache.demand_hits::.cpu.inst          1562217                       # number of demand (read+write) hits
system.icache.demand_hits::total              1562217                       # number of demand (read+write) hits
system.icache.overall_hits::.cpu.inst         1562217                       # number of overall hits
system.icache.overall_hits::total             1562217                       # number of overall hits
system.icache.demand_misses::.cpu.inst            639                       # number of demand (read+write) misses
system.icache.demand_misses::total                639                       # number of demand (read+write) misses
system.icache.overall_misses::.cpu.inst           639                       # number of overall misses
system.icache.overall_misses::total               639                       # number of overall misses
system.icache.demand_miss_latency::.cpu.inst     40763000                       # number of demand (read+write) miss cycles
system.icache.demand_miss_latency::total     40763000                       # number of demand (read+write) miss cycles
system.icache.overall_miss_latency::.cpu.inst     40763000                       # number of overall miss cycles
system.icache.overall_miss_latency::total     40763000                       # number of overall miss cycles
system.icache.demand_accesses::.cpu.inst      1562856                       # number of demand (read+write) accesses
system.icache.demand_accesses::total          1562856                       # number of demand (read+write) accesses
system.icache.overall_accesses::.cpu.inst      1562856                       # number of overall (read+write) accesses
system.icache.overall_accesses::total         1562856                       # number of overall (read+write) accesses
system.icache.demand_miss_rate::.cpu.inst     0.000409                       # miss rate for demand accesses
system.icache.demand_miss_rate::total        0.000409                       # miss rate for demand accesses
system.icache.overall_miss_rate::.cpu.inst     0.000409                       # miss rate for overall accesses
system.icache.overall_miss_rate::total       0.000409                       # miss rate for overall accesses
system.icache.demand_avg_miss_latency::.cpu.inst 63791.862285                       # average overall miss latency
system.icache.demand_avg_miss_latency::total 63791.862285                       # average overall miss latency
system.icache.overall_avg_miss_latency::.cpu.inst 63791.862285                       # average overall miss latency
system.icache.overall_avg_miss_latency::total 63791.862285                       # average overall miss latency
system.icache.blocked_cycles::no_mshrs              0                       # number of cycles access was blocked
system.icache.blocked_cycles::no_targets            0                       # number of cycles access was blocked
system.icache.blocked::no_mshrs                     0                       # number of cycles access was blocked
system.icache.blocked::no_targets                   0                       # number of cycles access was blocked
system.icache.avg_blocked_cycles::no_mshrs          nan                       # average number of cycles each access was blocked
system.icache.avg_blocked_cycles::no_targets          nan                       # average number of cycles each access was blocked
system.icache.demand_mshr_misses::.cpu.inst          639                       # number of demand (read+write) MSHR misses
system.icache.demand_mshr_misses::total           639                       # number of demand (read+write) MSHR misses
system.icache.overall_mshr_misses::.cpu.inst          639                       # number of overall MSHR misses
system.icache.overall_mshr_misses::total          639                       # number of overall MSHR misses
system.icache.demand_mshr_miss_latency::.cpu.inst     39485000                       # number of demand (read+write) MSHR miss cycles
system.icache.demand_mshr_miss_latency::total     39485000                       # number of demand (read+write) MSHR miss cycles
system.icache.overall_mshr_miss_latency::.cpu.inst     39485000                       # number of overall MSHR miss cycles
system.icache.overall_mshr_miss_latency::total     39485000                       # number of overall MSHR miss cycles
system.icache.demand_mshr_miss_rate::.cpu.inst     0.000409                       # mshr miss rate for demand accesses
system.icache.demand_mshr_miss_rate::total     0.000409                       # mshr miss rate for demand accesses
system.icache.overall_mshr_miss_rate::.cpu.inst     0.000409                       # mshr miss rate for overall accesses
system.icache.overall_mshr_miss_rate::total     0.000409                       # mshr miss rate for overall accesses
system.icache.demand_avg_mshr_miss_latency::.cpu.inst 61791.862285                       # average overall mshr miss latency
system.icache.demand_avg_mshr_miss_latency::total 61791.862285                       # average overall mshr miss latency
system.icache.overall_avg_mshr_miss_latency::.cpu.inst 61791.862285                       # average overall mshr miss latency
system.icache.overall_avg_mshr_miss_latency::total 61791.862285                       # average overall mshr miss latency
system.icache.replacements                        417                       # number of replacements
system.icache.ReadReq_hits::.cpu.inst         1562217                       # number of ReadReq hits
system.icache.ReadReq_hits::total             1562217                       # number of ReadReq hits
system.icache.ReadReq_misses::.cpu.inst           639                       # number of ReadReq misses
system.icache.ReadReq_misses::total               639                       # number of ReadReq misses
system.icache.ReadReq_miss_latency::.cpu.inst     40763000                       # number of ReadReq miss cycles
system.icache.ReadReq_miss_latency::total     40763000                       # number of ReadReq miss cycles
system.icache.ReadReq_accesses::.cpu.inst      1562856                       # number of ReadReq accesses(hits+misses)
system.icache.ReadReq_accesses::total         1562856                       # number of ReadReq accesses(hits+misses)
system.icache.ReadReq_miss_rate::.cpu.inst     0.000409                       # miss rate for ReadReq accesses
system.icache.ReadReq_miss_rate::total       0.000409                       # miss rate for ReadReq accesses
system.icache.ReadReq_avg_miss_latency::.cpu.inst 63791.862285                       # average ReadReq miss latency
system.icache.ReadReq_avg_miss_latency::total 63791.862285                       # average ReadReq miss latency
system.icache.ReadReq_mshr_misses::.cpu.inst          639                       # number of ReadReq MSHR misses
system.icache.ReadReq_mshr_misses::total          639                       # number of ReadReq MSHR misses
system.icache.ReadReq_mshr_miss_latency::.cpu.inst     39485000                       # number of ReadReq MSHR miss cycles
system.icache.ReadReq_mshr_miss_latency::total     39485000                       # number of ReadReq MSHR miss cycles
system.icache.ReadReq_mshr_miss_rate::.cpu.inst     0.000409                       # mshr miss rate for ReadReq accesses
system.icache.ReadReq_mshr_miss_rate::total     0.000409                       # mshr miss rate for ReadReq accesses
system.icache.ReadReq_avg_mshr_miss_latency::.cpu.inst 61791.862285                       # average ReadReq mshr miss latency
system.icache.ReadReq_avg_mshr_miss_latency::total 61791.862285                       # average ReadReq mshr miss latency
system.icache.power_state.pwrStateResidencyTicks::UNDEFINED  13094090000                       # Cumulative time (in ticks) in various power states
system.icache.tags.tagsinuse               221.407182                       # Cycle average of tags in use
system.icache.tags.total_refs                   16002                       # Total number of references to valid blocks.
system.icache.tags.sampled_refs                   417                       # Sample count of references to valid blocks.
system.icache.tags.avg_refs                 38.374101                       # Average number of references to valid blocks.
system.icache.tags.warmup_cycle                 82000                       # Cycle when the warmup percentage was hit.
system.icache.tags.occ_blocks::.cpu.inst   221.407182                       # Average occupied blocks per requestor
system.icache.tags.occ_percent::.cpu.inst     0.864872                       # Average percentage of cache occupancy
system.icache.tags.occ_percent::total        0.864872                       # Average percentage of cache occupancy
system.icache.tags.occ_task_id_blocks::1024          222                       # Occupied blocks per task id
system.icache.tags.age_task_id_blocks_1024::4          222                       # Occupied blocks per task id
system.icache.tags.occ_task_id_percent::1024     0.867188                       # Percentage of cache occupancy per task id
system.icache.tags.tag_accesses               1563495                       # Number of tag accesses
system.icache.tags.data_accesses              1563495                       # Number of data accesses
system.icache.tags.power_state.pwrStateResidencyTicks::UNDEFINED  13094090000                       # Cumulative time (in ticks) in various power states
system.membus.trans_dist::ReadReq              107107                       # Transaction distribution
system.membus.trans_dist::ReadResp             107107                       # Transaction distribution
system.membus.trans_dist::WritebackDirty       102440                       # Transaction distribution
system.membus.pkt_count_system.cache_small.mem_side::system.mem_ctrl.port       316654                       # Packet count per connected master and slave (bytes)
system.membus.pkt_count_system.cache_small.mem_side::total       316654                       # Packet count per connected master and slave (bytes)
system.membus.pkt_count::total                 316654                       # Packet count per connected master and slave (bytes)
system.membus.pkt_size_system.cache_small.mem_side::system.mem_ctrl.port     13411008                       # Cumulative packet size per connected master and slave (bytes)
system.membus.pkt_size_system.cache_small.mem_side::total     13411008                       # Cumulative packet size per connected master and slave (bytes)
system.membus.pkt_size::total                13411008                       # Cumulative packet size per connected master and slave (bytes)
system.membus.reqLayer2.occupancy           619307000                       # Layer occupancy (ticks)
system.membus.reqLayer2.utilization               4.7                       # Layer utilization (%)
system.membus.respLayer1.occupancy          563737250                       # Layer occupancy (ticks)
system.membus.respLayer1.utilization              4.3                       # Layer utilization (%)
system.membus.power_state.pwrStateResidencyTicks::UNDEFINED  13094090000                       # Cumulative time (in ticks) in various power states
system.mem_ctrl.bytes_read::.cpu.inst           32448                       # Number of bytes read from this memory
system.mem_ctrl.bytes_read::.cpu.data         6822400                       # Number of bytes read from this memory
system.mem_ctrl.bytes_read::total             6854848                       # Number of bytes read from this memory
system.mem_ctrl.bytes_inst_read::.cpu.inst        32448                       # Number of instructions bytes read from this memory
system.mem_ctrl.bytes_inst_read::total          32448                       # Number of instructions bytes read from this memory
system.mem_ctrl.bytes_written::.writebacks      6556160                       # Number of bytes written to this memory
system.mem_ctrl.bytes_written::total          6556160                       # Number of bytes written to this memory
system.mem_ctrl.num_reads::.cpu.inst              507                       # Number of read requests responded to by this memory
system.mem_ctrl.num_reads::.cpu.data           106600                       # Number of read requests responded to by this memory
system.mem_ctrl.num_reads::total               107107                       # Number of read requests responded to by this memory
system.mem_ctrl.num_writes::.writebacks        102440                       # Number of write requests responded to by this memory
system.mem_ctrl.num_writes::total              102440                       # Number of write requests responded to by this memory
system.mem_ctrl.bw_read::.cpu.inst            2478065                       # Total read bandwidth from this memory (bytes/s)
system.mem_ctrl.bw_read::.cpu.data          521028953                       # Total read bandwidth from this memory (bytes/s)
system.mem_ctrl.bw_read::total              523507017                       # Total read bandwidth from this memory (bytes/s)
system.mem_ctrl.bw_inst_read::.cpu.inst       2478065                       # Instruction read bandwidth from this memory (bytes/s)
system.mem_ctrl.bw_inst_read::total           2478065                       # Instruction read bandwidth from this memory (bytes/s)
system.mem_ctrl.bw_write::.writebacks       500696116                       # Write bandwidth from this memory (bytes/s)
system.mem_ctrl.bw_write::total             500696116                       # Write bandwidth from this memory (bytes/s)
system.mem_ctrl.bw_total::.writebacks       500696116                       # Total bandwidth to/from this memory (bytes/s)
system.mem_ctrl.bw_total::.cpu.inst           2478065                       # Total bandwidth to/from this memory (bytes/s)
system.mem_ctrl.bw_total::.cpu.data         521028953                       # Total bandwidth to/from this memory (bytes/s)
system.mem_ctrl.bw_total::total            1024203133                       # Total bandwidth to/from this memory (bytes/s)
system.mem_ctrl.avgPriority_.writebacks::samples    102440.00                       # Average QoS priority value for accepted requests
system.mem_ctrl.avgPriority_.cpu.inst::samples       507.00                       # Average QoS priority value for accepted requests
system.mem_ctrl.avgPriority_.cpu.data::samples    106600.00                       # Average QoS priority value for accepted requests
system.mem_ctrl.priorityMinLatency       0.000000018750                       # per QoS priority minimum request to response latency (s)
system.mem_ctrl.priorityMaxLatency       0.000937952500                       # per QoS priority maximum request to response latency (s)
system.mem_ctrl.numReadWriteTurnArounds          6130                       # Number of turnarounds from READ to WRITE
system.mem_ctrl.numWriteReadTurnArounds          6130                       # Number of turnarounds from WRITE to READ
system.mem_ctrl.numStayReadState               314083                       # Number of times bus staying in READ state
system.mem_ctrl.numStayWriteState               96462                       # Number of times bus staying in WRITE state
system.mem_ctrl.readReqs                       107107                       # Number of read requests accepted
system.mem_ctrl.writeReqs                      102440                       # Number of write requests accepted
system.mem_ctrl.readBursts                     107107                       # Number of DRAM read bursts, including those serviced by the write queue
system.mem_ctrl.writeBursts                    102440                       # Number of DRAM write bursts, including those merged in the write queue
system.mem_ctrl.servicedByWrQ                       0                       # Number of DRAM read bursts serviced by the write queue
system.mem_ctrl.mergedWrBursts                      0                       # Number of DRAM write bursts merged with an existing one
system.mem_ctrl.neitherReadNorWriteReqs             0                       # Number of requests that are neither read nor write
system.mem_ctrl.perBankRdBursts::0               6731                       # Per bank write bursts
system.mem_ctrl.perBankRdBursts::1               6684                       # Per bank write bursts
system.mem_ctrl.perBankRdBursts::2               6691                       # Per bank write bursts
system.mem_ctrl.perBankRdBursts::3               6702                       # Per bank write bursts
system.mem_ctrl.perBankRdBursts::4               6694                       # Per bank write bursts
system.mem_ctrl.perBankRdBursts::5               6694                       # Per bank write bursts
system.mem_ctrl.perBankRdBursts::6               6683                       # Per bank write bursts
system.mem_ctrl.perBankRdBursts::7               6660                       # Per bank write bursts
system.mem_ctrl.perBankRdBursts::8               6670                       # Per bank write bursts
system.mem_ctrl.perBankRdBursts::9               6736                       # Per bank write bursts
system.mem_ctrl.perBankRdBursts::10              6704                       # Per bank write bursts
system.mem_ctrl.perBankRdBursts::11              6699                       # Per bank write bursts
system.mem_ctrl.perBankRdBursts::12              6695                       # Per bank write bursts
system.mem_ctrl.perBankRdBursts::13              6703                       # Per bank write bursts
system.mem_ctrl.perBankRdBursts::14              6636                       # Per bank write bursts
system.mem_ctrl.perBankRdBursts::15              6725                       # Per bank write bursts
system.mem_ctrl.perBankWrBursts::0               6400                       # Per bank write bursts
system.mem_ctrl.perBankWrBursts::1               6400                       # Per bank write bursts
system.mem_ctrl.perBankWrBursts::2               6400                       # Per bank write bursts
system.mem_ctrl.perBankWrBursts::3               6400                       # Per bank write bursts
system.mem_ctrl.perBankWrBursts::4               6400                       # Per bank write bursts
system.mem_ctrl.perBankWrBursts::5               6400                       # Per bank write bursts
system.mem_ctrl.perBankWrBursts::6               6400                       # Per bank write bursts
system.mem_ctrl.perBankWrBursts::7               6400                       # Per bank write bursts
system.mem_ctrl.perBankWrBursts::8               6402                       # Per bank write bursts
system.mem_ctrl.perBankWrBursts::9               6456                       # Per bank write bursts
system.mem_ctrl.perBankWrBursts::10              6416                       # Per bank write bursts
system.mem_ctrl.perBankWrBursts::11              6430                       # Per bank write bursts
system.mem_ctrl.perBankWrBursts::12              6412                       # Per bank write bursts
system.mem_ctrl.perBankWrBursts::13              6365                       # Per bank write bursts
system.mem_ctrl.perBankWrBursts::14              6337                       # Per bank write bursts
system.mem_ctrl.perBankWrBursts::15              6400                       # Per bank write bursts
system.mem_ctrl.avgRdQLen                        1.00                       # Average read queue length when enqueuing
system.mem_ctrl.avgWrQLen                       24.62                       # Average write queue length when enqueuing
system.mem_ctrl.totQLat                    1067952500                       # Total ticks spent queuing
system.mem_ctrl.totBusLat                   535535000                       # Total ticks spent in databus transfers
system.mem_ctrl.totMemAccLat               3076208750                       # Total ticks spent from burst creation until serviced by the DRAM
system.mem_ctrl.avgQLat                       9970.89                       # Average queueing delay per DRAM burst
system.mem_ctrl.avgBusLat                     5000.00                       # Average bus latency per DRAM burst
system.mem_ctrl.avgMemAccLat                 28720.89                       # Average memory access latency per DRAM burst
system.mem_ctrl.numRdRetry                          0                       # Number of times read queue was full causing retry
system.mem_ctrl.numWrRetry                          0                       # Number of times write queue was full causing retry
system.mem_ctrl.readRowHits                     96682                       # Number of row buffer hits during reads
system.mem_ctrl.writeRowHits                    93672                       # Number of row buffer hits during writes
system.mem_ctrl.readRowHitRate                  90.27                       # Row buffer hit rate for reads
system.mem_ctrl.writeRowHitRate                 91.44                       # Row buffer hit rate for writes
system.mem_ctrl.readPktSize::0                      0                       # Read request sizes (log2)
system.mem_ctrl.readPktSize::1                      0                       # Read request sizes (log2)
system.mem_ctrl.readPktSize::2                      0                       # Read request sizes (log2)
system.mem_ctrl.readPktSize::3                      0                       # Read request sizes (log2)
system.mem_ctrl.readPktSize::4                      0                       # Read request sizes (log2)
system.mem_ctrl.readPktSize::5                      0                       # Read request sizes (log2)
system.mem_ctrl.readPktSize::6                 107107                       # Read request sizes (log2)
system.mem_ctrl.writePktSize::0                     0                       # Write request sizes (log2)
system.mem_ctrl.writePktSize::1                     0                       # Write request sizes (log2)
system.mem_ctrl.writePktSize::2                     0                       # Write request sizes (log2)
system.mem_ctrl.writePktSize::3                     0                       # Write request sizes (log2)
system.mem_ctrl.writePktSize::4                     0                       # Write request sizes (log2)
system.mem_ctrl.writePktSize::5                     0                       # Write request sizes (log2)
system.mem_ctrl.writePktSize::6                102440                       # Write request sizes (log2)
system.mem_ctrl.rdQLenPdf::0                   107107                       # What read queue length does an incoming req see
system.mem_ctrl.rdQLenPdf::1                        0                       # What read queue length does an incoming req see
system.mem_ctrl.rdQLenPdf::2                        0                       # What read queue length does an incoming req see
system.mem_ctrl.rdQLenPdf::3                        0                       # What read queue length does an incoming req see
system.mem_ctrl.rdQLenPdf::4                        0                       # What read queue length does an incoming req see
system.mem_ctrl.rdQLenPdf::5                        0                       # What read queue length does an incoming req see
system.mem_ctrl.rdQLenPdf::6                        0                       # What read queue length does an incoming req see
system.mem_ctrl.rdQLenPdf::7                        0                       # What read queue length does an incoming req see
system.mem_ctrl.rdQLenPdf::8                        0                       # What read queue length does an incoming req see
system.mem_ctrl.rdQLenPdf::9                        0                       # What read queue length does an incoming req see
system.mem_ctrl.rdQLenPdf::10                       0                       # What read queue length does an incoming req see
system.mem_ctrl.rdQLenPdf::11                       0                       # What read queue length does an incoming req see
system.mem_ctrl.rdQLenPdf::12                       0                       # What read queue length does an incoming req see
system.mem_ctrl.rdQLenPdf::13                       0                       # What read queue length does an incoming req see
system.mem_ctrl.rdQLenPdf::14                       0                       # What read queue length does an incoming req see
system.mem_ctrl.rdQLenPdf::15                       0                       # What read queue length does an incoming req see
system.mem_ctrl.rdQLenPdf::16                       0                       # What read queue length does an incoming req see
system.mem_ctrl.rdQLenPdf::17                       0                       # What read queue length does an incoming req see
system.mem_ctrl.rdQLenPdf::18                       0                       # What read queue length does an incoming req see
system.mem_ctrl.rdQLenPdf::19                       0                       # What read queue length does an incoming req see
system.mem_ctrl.rdQLenPdf::20                       0                       # What read queue length does an incoming req see
system.mem_ctrl.rdQLenPdf::21                       0                       # What read queue length does an incoming req see
system.mem_ctrl.rdQLenPdf::22                       0                       # What read queue length does an incoming req see
system.mem_ctrl.rdQLenPdf::23                       0                       # What read queue length does an incoming req see
system.mem_ctrl.rdQLenPdf::24                       0                       # What read queue length does an incoming req see
system.mem_ctrl.rdQLenPdf::25                       0                       # What read queue length does an incoming req see
system.mem_ctrl.rdQLenPdf::26                       0                       # What read queue length does an incoming req see
system.mem_ctrl.rdQLenPdf::27                       0                       # What read queue length does an incoming req see
system.mem_ctrl.rdQLenPdf::28                       0                       # What read queue length does an incoming req see
system.mem_ctrl.rdQLenPdf::29                       0                       # What read queue length does an incoming req see
system.mem_ctrl.rdQLenPdf::30                       0                       # What read queue length does an incoming req see
system.mem_ctrl.rdQLenPdf::31                       0                       # What read queue length does an incoming req see
system.mem_ctrl.wrQLenPdf::0                        1                       # What write queue length does an incoming req see
system.mem_ctrl.wrQLenPdf::1                        1                       # What write queue length does an incoming req see
system.mem_ctrl.wrQLenPdf::2                        1                       # What write queue length does an incoming req see
system.mem_ctrl.wrQLenPdf::3                        1                       # What write queue length does an incoming req see
system.mem_ctrl.wrQLenPdf::4                        1                       # What write queue length does an incoming req see
system.mem_ctrl.wrQLenPdf::5                        1                       # What write queue length does an incoming req see
system.mem_ctrl.wrQLenPdf::6                        1                       # What write queue length does an incoming req see
system.mem_ctrl.wrQLenPdf::7                        1                       # What write queue length does an incoming req see
system.mem_ctrl.wrQLenPdf::8                        1                       # What write queue length does an incoming req see
system.mem_ctrl.wrQLenPdf::9                        1                       # What write queue length does an incoming req see
system.mem_ctrl.wrQLenPdf::10                       1                       # What write queue length does an incoming req see
system.mem_ctrl.wrQLenPdf::11                       1                       # What write queue length does an incoming req see
system.mem_ctrl.wrQLenPdf::12                       1                       # What write queue length does an incoming req see
system.mem_ctrl.wrQLenPdf::13                       1                       # What write queue length does an incoming req see
system.mem_ctrl.wrQLenPdf::14                       1                       # What write queue length does an incoming req see
system.mem_ctrl.wrQLenPdf::15                    2073                       # What write queue length does an incoming req see
system.mem_ctrl.wrQLenPdf::16                    2209                       # What write queue length does an incoming req see
system.mem_ctrl.wrQLenPdf::17                    6120                       # What write queue length does an incoming req see
system.mem_ctrl.wrQLenPdf::18                    6144                       # What write queue length does an incoming req see
system.mem_ctrl.wrQLenPdf::19                    6146                       # What write queue length does an incoming req see
system.mem_ctrl.wrQLenPdf::20                    6131                       # What write queue length does an incoming req see
system.mem_ctrl.wrQLenPdf::21                    6131                       # What write queue length does an incoming req see
system.mem_ctrl.wrQLenPdf::22                    6130                       # What write queue length does an incoming req see
system.mem_ctrl.wrQLenPdf::23                    6130                       # What write queue length does an incoming req see
system.mem_ctrl.wrQLenPdf::24                    6130                       # What write queue length does an incoming req see
system.mem_ctrl.wrQLenPdf::25                    6131                       # What write queue length does an incoming req see
system.mem_ctrl.wrQLenPdf::26                    6137                       # What write queue length does an incoming req see
system.mem_ctrl.wrQLenPdf::27                    6163                       # What write queue length does an incoming req see
system.mem_ctrl.wrQLenPdf::28                    6130                       # What write queue length does an incoming req see
system.mem_ctrl.wrQLenPdf::29                    6130                       # What write queue length does an incoming req see
system.mem_ctrl.wrQLenPdf::30                    6130                       # What write queue length does an incoming req see
system.mem_ctrl.wrQLenPdf::31                    6130                       # What write queue length does an incoming req see
system.mem_ctrl.wrQLenPdf::32                    6130                       # What write queue length does an incoming req see
system.mem_ctrl.wrQLenPdf::33                       0                       # What write queue length does an incoming req see
system.mem_ctrl.wrQLenPdf::34                       0                       # What write queue length does an incoming req see
system.mem_ctrl.wrQLenPdf::35                       0                       # What write queue length does an incoming req see
system.mem_ctrl.wrQLenPdf::36                       0                       # What write queue length does an incoming req see
system.mem_ctrl.wrQLenPdf::37                       0                       # What write queue length does an incoming req see
system.mem_ctrl.wrQLenPdf::38                       0                       # What write queue length does an incoming req see
system.mem_ctrl.wrQLenPdf::39                       0                       # What write queue length does an incoming req see
system.mem_ctrl.wrQLenPdf::40                       0                       # What write queue length does an incoming req see
system.mem_ctrl.wrQLenPdf::41                       0                       # What write queue length does an incoming req see
system.mem_ctrl.wrQLenPdf::42                       0                       # What write queue length does an incoming req see
system.mem_ctrl.wrQLenPdf::43                       0                       # What write queue length does an incoming req see
system.mem_ctrl.wrQLenPdf::44                       0                       # What write queue length does an incoming req see
system.mem_ctrl.wrQLenPdf::45                       0                       # What write queue length does an incoming req see
system.mem_ctrl.wrQLenPdf::46                       0                       # What write queue length does an incoming req see
system.mem_ctrl.wrQLenPdf::47                       0                       # What write queue length does an incoming req see
system.mem_ctrl.wrQLenPdf::48                       0                       # What write queue length does an incoming req see
system.mem_ctrl.wrQLenPdf::49                       0                       # What write queue length does an incoming req see
system.mem_ctrl.wrQLenPdf::50                       0                       # What write queue length does an incoming req see
system.mem_ctrl.wrQLenPdf::51                       0                       # What write queue length does an incoming req see
system.mem_ctrl.wrQLenPdf::52                       0                       # What write queue length does an incoming req see
system.mem_ctrl.wrQLenPdf::53                       0                       # What write queue length does an incoming req see
system.mem_ctrl.wrQLenPdf::54                       0                       # What write queue length does an incoming req see
system.mem_ctrl.wrQLenPdf::55                       0                       # What write queue length does an incoming req see
system.mem_ctrl.wrQLenPdf::56                       0                       # What write queue length does an incoming req see
system.mem_ctrl.wrQLenPdf::57                       0                       # What write queue length does an incoming req see
system.mem_ctrl.wrQLenPdf::58                       0                       # What write queue length does an incoming req see
system.mem_ctrl.wrQLenPdf::59                       0                       # What write queue length does an incoming req see
system.mem_ctrl.wrQLenPdf::60                       0                       # What write queue length does an incoming req see
system.mem_ctrl.wrQLenPdf::61                       0                       # What write queue length does an incoming req see
system.mem_ctrl.wrQLenPdf::62                       0                       # What write queue length does an incoming req see
system.mem_ctrl.wrQLenPdf::63                       0                       # What write queue length does an incoming req see
system.mem_ctrl.bytesPerActivate::samples        19170                       # Bytes accessed per row activation
system.mem_ctrl.bytesPerActivate::mean     699.486281                       # Bytes accessed per row activation
system.mem_ctrl.bytesPerActivate::gmean    516.169767                       # Bytes accessed per row activation
system.mem_ctrl.bytesPerActivate::stdev    389.562274                       # Bytes accessed per row activation
system.mem_ctrl.bytesPerActivate::0-127           913      4.76%      4.76% # Bytes accessed per row activation
system.mem_ctrl.bytesPerActivate::128-255         3891     20.30%     25.06% # Bytes accessed per row activation
system.mem_ctrl.bytesPerActivate::256-383          830      4.33%     29.39% # Bytes accessed per row activation
system.mem_ctrl.bytesPerActivate::384-511          647      3.38%     32.76% # Bytes accessed per row activation
system.mem_ctrl.bytesPerActivate::512-639          926      4.83%     37.60% # Bytes accessed per row activation
system.mem_ctrl.bytesPerActivate::640-767          657      3.43%     41.02% # Bytes accessed per row activation
system.mem_ctrl.bytesPerActivate::768-895          652      3.40%     44.42% # Bytes accessed per row activation
system.mem_ctrl.bytesPerActivate::896-1023          779      4.06%     48.49% # Bytes accessed per row activation
system.mem_ctrl.bytesPerActivate::1024-1151         9875     51.51%    100.00% # Bytes accessed per row activation
system.mem_ctrl.bytesPerActivate::total         19170                       # Bytes accessed per row activation
system.mem_ctrl.rdPerTurnAround::samples         6130                       # Reads before turning the bus around for writes
system.mem_ctrl.rdPerTurnAround::mean       17.471452                       # Reads before turning the bus around for writes
system.mem_ctrl.rdPerTurnAround::gmean      16.726143                       # Reads before turning the bus around for writes
system.mem_ctrl.rdPerTurnAround::stdev      53.016225                       # Reads before turning the bus around for writes
system.mem_ctrl.rdPerTurnAround::0-255           6129     99.98%     99.98% # Reads before turning the bus around for writes
system.mem_ctrl.rdPerTurnAround::4096-4351            1      0.02%    100.00% # Reads before turning the bus around for writes
system.mem_ctrl.rdPerTurnAround::total           6130                       # Reads before turning the bus around for writes
system.mem_ctrl.wrPerTurnAround::samples         6130                       # Writes before turning the bus around for reads
system.mem_ctrl.wrPerTurnAround::mean       16.707667                       # Writes before turning the bus around for reads
system.mem_ctrl.wrPerTurnAround::gmean      16.680964                       # Writes before turning the bus around for reads
system.mem_ctrl.wrPerTurnAround::stdev       0.955883                       # Writes before turning the bus around for reads
system.mem_ctrl.wrPerTurnAround::16              3922     63.98%     63.98% # Writes before turning the bus around for reads
system.mem_ctrl.wrPerTurnAround::17               114      1.86%     65.84% # Writes before turning the bus around for reads
system.mem_ctrl.wrPerTurnAround::18              2058     33.57%     99.41% # Writes before turning the bus around for reads
system.mem_ctrl.wrPerTurnAround::19                36      0.59%    100.00% # Writes before turning the bus around for reads
system.mem_ctrl.wrPerTurnAround::total           6130                       # Writes before turning the bus around for reads
system.mem_ctrl.bytesReadDRAM                 6854848                       # Total number of bytes read from DRAM
system.mem_ctrl.bytesReadWrQ                        0                       # Total number of bytes read from write queue
system.mem_ctrl.bytesWritten                  6554752                       # Total number of bytes written to DRAM
system.mem_ctrl.bytesReadSys                  6854848                       # Total read bytes from the system interface side
system.mem_ctrl.bytesWrittenSys               6556160                       # Total written bytes from the system interface side
system.mem_ctrl.avgRdBW                        523.51                       # Average DRAM read bandwidth in MiByte/s
system.mem_ctrl.avgWrBW                        500.59                       # Average achieved write bandwidth in MiByte/s
system.mem_ctrl.avgRdBWSys                     523.51                       # Average system read bandwidth in MiByte/s
system.mem_ctrl.avgWrBWSys                     500.70                       # Average system write bandwidth in MiByte/s
system.mem_ctrl.peakBW                       12800.00                       # Theoretical peak bandwidth in MiByte/s
system.mem_ctrl.busUtil                          8.00                       # Data bus utilization in percentage
system.mem_ctrl.busUtilRead                      4.09                       # Data bus utilization in percentage for reads
system.mem_ctrl.busUtilWrite                     3.91                       # Data bus utilization in percentage for writes
system.mem_ctrl.totGap                    13094022000                       # Total gap between requests
system.mem_ctrl.avgGap                       62487.28                       # Average gap between requests
system.mem_ctrl.masterReadBytes::.cpu.inst        32448                       # Per-master bytes read from memory
system.mem_ctrl.masterReadBytes::.cpu.data      6822400                       # Per-master bytes read from memory
system.mem_ctrl.masterWriteBytes::.writebacks      6554752                       # Per-master bytes write to memory
system.mem_ctrl.masterReadRate::.cpu.inst 2478064.531403098721                       # Per-master bytes read from memory rate (Bytes/sec)
system.mem_ctrl.masterReadRate::.cpu.data 521028952.756549000740                       # Per-master bytes read from memory rate (Bytes/sec)
system.mem_ctrl.masterWriteRate::.writebacks 500588586.148407459259                       # Per-master bytes write to memory rate (Bytes/sec)
system.mem_ctrl.masterReadAccesses::.cpu.inst          507                       # Per-master read serviced memory accesses
system.mem_ctrl.masterReadAccesses::.cpu.data       106600                       # Per-master read serviced memory accesses
system.mem_ctrl.masterWriteAccesses::.writebacks       102440                       # Per-master write serviced memory accesses
system.mem_ctrl.masterReadTotalLat::.cpu.inst     12972250                       # Per-master read total memory access latency
system.mem_ctrl.masterReadTotalLat::.cpu.data   3063236500                       # Per-master read total memory access latency
system.mem_ctrl.masterWriteTotalLat::.writebacks 307699846000                       # Per-master write total memory access latency
system.mem_ctrl.masterReadAvgLat::.cpu.inst     25586.29                       # Per-master read average memory access latency
system.mem_ctrl.masterReadAvgLat::.cpu.data     28735.80                       # Per-master read average memory access latency
system.mem_ctrl.masterWriteAvgLat::.writebacks   3003707.99                       # Per-master write average memory access latency
system.mem_ctrl.pageHitRate                     90.84                       # Row buffer hit rate, read and write combined
system.mem_ctrl.rank1.actEnergy              68636820                       # Energy for activate commands per rank (pJ)
system.mem_ctrl.rank1.preEnergy              36477540                       # Energy for precharge commands per rank (pJ)
system.mem_ctrl.rank1.readEnergy            382475520                       # Energy for read commands per rank (pJ)
system.mem_ctrl.rank1.writeEnergy           267357960                       # Energy for write commands per rank (pJ)
system.mem_ctrl.rank1.refreshEnergy      1033209840.000000                       # Energy for refresh commands per rank (pJ)
system.mem_ctrl.rank1.actBackEnergy        3121573080                       # Energy for active background per rank (pJ)
system.mem_ctrl.rank1.preBackEnergy        2399437440                       # Energy for precharge background per rank (pJ)
system.mem_ctrl.rank1.actPowerDownEnergy            0                       # Energy for active power-down per rank (pJ)
system.mem_ctrl.rank1.prePowerDownEnergy            0                       # Energy for precharge power-down per rank (pJ)
system.mem_ctrl.rank1.selfRefreshEnergy             0                       # Energy for self refresh per rank (pJ)
system.mem_ctrl.rank1.totalEnergy          7309168200                       # Total energy per rank (pJ)
system.mem_ctrl.rank1.averagePower         558.203602                       # Core power per rank (mW)
system.mem_ctrl.rank1.totalIdleTime                 0                       # Total Idle time Per DRAM Rank
system.mem_ctrl.rank1.memoryStateTime::IDLE   6139653750                       # Time in different power states
system.mem_ctrl.rank1.memoryStateTime::REF    437060000                       # Time in different power states
system.mem_ctrl.rank1.memoryStateTime::SREF            0                       # Time in different power states
system.mem_ctrl.rank1.memoryStateTime::PRE_PDN            0                       # Time in different power states
system.mem_ctrl.rank1.memoryStateTime::ACT   6517376250                       # Time in different power states
system.mem_ctrl.rank1.memoryStateTime::ACT_PDN            0                       # Time in different power states
system.mem_ctrl.rank0.actEnergy              68244120                       # Energy for activate commands per rank (pJ)
system.mem_ctrl.rank0.preEnergy              36272610                       # Energy for precharge commands per rank (pJ)
system.mem_ctrl.rank0.readEnergy            382268460                       # Energy for read commands per rank (pJ)
system.mem_ctrl.rank0.writeEnergy           267264000                       # Energy for write commands per rank (pJ)
system.mem_ctrl.rank0.refreshEnergy      1033209840.000000                       # Energy for refresh commands per rank (pJ)
system.mem_ctrl.rank0.actBackEnergy        3120362970                       # Energy for active background per rank (pJ)
system.mem_ctrl.rank0.preBackEnergy        2400456480                       # Energy for precharge background per rank (pJ)
system.mem_ctrl.rank0.actPowerDownEnergy            0                       # Energy for active power-down per rank (pJ)
system.mem_ctrl.rank0.prePowerDownEnergy            0                       # Energy for precharge power-down per rank (pJ)
system.mem_ctrl.rank0.selfRefreshEnergy             0                       # Energy for self refresh per rank (pJ)
system.mem_ctrl.rank0.totalEnergy          7308078480                       # Total energy per rank (pJ)
system.mem_ctrl.rank0.averagePower         558.120379                       # Core power per rank (mW)
system.mem_ctrl.rank0.totalIdleTime                 0                       # Total Idle time Per DRAM Rank
system.mem_ctrl.rank0.memoryStateTime::IDLE   6141364250                       # Time in different power states
system.mem_ctrl.rank0.memoryStateTime::REF    437060000                       # Time in different power states
system.mem_ctrl.rank0.memoryStateTime::SREF            0                       # Time in different power states
system.mem_ctrl.rank0.memoryStateTime::PRE_PDN            0                       # Time in different power states
system.mem_ctrl.rank0.memoryStateTime::ACT   6515665750                       # Time in different power states
system.mem_ctrl.rank0.memoryStateTime::ACT_PDN            0                       # Time in different power states
system.mem_ctrl.power_state.pwrStateResidencyTicks::UNDEFINED  13094090000                       # Cumulative time (in ticks) in various power states
system.cache_medium.blocked_cycles::no_mshrs            0                       # number of cycles access was blocked
system.cache_medium.blocked_cycles::no_targets            0                       # number of cycles access was blocked
system.cache_medium.blocked::no_mshrs               0                       # number of cycles access was blocked
system.cache_medium.blocked::no_targets             0                       # number of cycles access was blocked
system.cache_medium.avg_blocked_cycles::no_mshrs          nan                       # average number of cycles each access was blocked
system.cache_medium.avg_blocked_cycles::no_targets          nan                       # average number of cycles each access was blocked
system.cache_medium.replacements                    0                       # number of replacements
system.cache_medium.power_state.pwrStateResidencyTicks::UNDEFINED  13094090000                       # Cumulative time (in ticks) in various power states
system.cache_medium.tags.tagsinuse                  0                       # Cycle average of tags in use
system.cache_medium.tags.total_refs                 0                       # Total number of references to valid blocks.
system.cache_medium.tags.sampled_refs               0                       # Sample count of references to valid blocks.
system.cache_medium.tags.avg_refs                 nan                       # Average number of references to valid blocks.
system.cache_medium.tags.warmup_cycle               0                       # Cycle when the warmup percentage was hit.
system.cache_medium.tags.tag_accesses               0                       # Number of tag accesses
system.cache_medium.tags.data_accesses              0                       # Number of data accesses
system.cache_medium.tags.power_state.pwrStateResidencyTicks::UNDEFINED  13094090000                       # Cumulative time (in ticks) in various power states
system.clk_domain.clock                          1000                       # Clock period in ticks
system.clk_domain.voltage_domain.voltage            1                       # Voltage in Volts
system.dcache.demand_hits::.cpu.data           752432                       # number of demand (read+write) hits
system.dcache.demand_hits::total               752432                       # number of demand (read+write) hits
system.dcache.overall_hits::.cpu.data          752432                       # number of overall hits
system.dcache.overall_hits::total              752432                       # number of overall hits
system.dcache.demand_misses::.cpu.data         106680                       # number of demand (read+write) misses
system.dcache.demand_misses::total             106680                       # number of demand (read+write) misses
system.dcache.overall_misses::.cpu.data        106680                       # number of overall misses
system.dcache.overall_misses::total            106680                       # number of overall misses
system.dcache.demand_miss_latency::.cpu.data   8422512000                       # number of demand (read+write) miss cycles
system.dcache.demand_miss_latency::total   8422512000                       # number of demand (read+write) miss cycles
system.dcache.overall_miss_latency::.cpu.data   8422512000                       # number of overall miss cycles
system.dcache.overall_miss_latency::total   8422512000                       # number of overall miss cycles
system.dcache.demand_accesses::.cpu.data       859112                       # number of demand (read+write) accesses
system.dcache.demand_accesses::total           859112                       # number of demand (read+write) accesses
system.dcache.overall_accesses::.cpu.data       859112                       # number of overall (read+write) accesses
system.dcache.overall_accesses::total          859112                       # number of overall (read+write) accesses
system.dcache.demand_miss_rate::.cpu.data     0.124175                       # miss rate for demand accesses
system.dcache.demand_miss_rate::total        0.124175                       # miss rate for demand accesses
system.dcache.overall_miss_rate::.cpu.data     0.124175                       # miss rate for overall accesses
system.dcache.overall_miss_rate::total       0.124175                       # miss rate for overall accesses
system.dcache.demand_avg_miss_latency::.cpu.data 78951.181102                       # average overall miss latency
system.dcache.demand_avg_miss_latency::total 78951.181102                       # average overall miss latency
system.dcache.overall_avg_miss_latency::.cpu.data 78951.181102                       # average overall miss latency
system.dcache.overall_avg_miss_latency::total 78951.181102                       # average overall miss latency
system.dcache.blocked_cycles::no_mshrs              0                       # number of cycles access was blocked
system.dcache.blocked_cycles::no_targets            0                       # number of cycles access was blocked
system.dcache.blocked::no_mshrs                     0                       # number of cycles access was blocked
system.dcache.blocked::no_targets                   0                       # number of cycles access was blocked
system.dcache.avg_blocked_cycles::no_mshrs          nan                       # average number of cycles each access was blocked
system.dcache.avg_blocked_cycles::no_targets          nan                       # average number of cycles each access was blocked
system.dcache.writebacks::.writebacks          106320                       # number of writebacks
system.dcache.writebacks::total                106320                       # number of writebacks
system.dcache.demand_mshr_misses::.cpu.data       106680                       # number of demand (read+write) MSHR misses
system.dcache.demand_mshr_misses::total        106680                       # number of demand (read+write) MSHR misses
system.dcache.overall_mshr_misses::.cpu.data       106680                       # number of overall MSHR misses
system.dcache.overall_mshr_misses::total       106680                       # number of overall MSHR misses
system.dcache.demand_mshr_miss_latency::.cpu.data   8209154000                       # number of demand (read+write) MSHR miss cycles
system.dcache.demand_mshr_miss_latency::total   8209154000                       # number of demand (read+write) MSHR miss cycles
system.dcache.overall_mshr_miss_latency::.cpu.data   8209154000                       # number of overall MSHR miss cycles
system.dcache.overall_mshr_miss_latency::total   8209154000                       # number of overall MSHR miss cycles
system.dcache.demand_mshr_miss_rate::.cpu.data     0.124175                       # mshr miss rate for demand accesses
[...]
system.dcache.tags.occ_percent::total        0.999140                       # Average percentage of cache occupancy
system.dcache.tags.occ_task_id_blocks::1024          256                       # Occupied blocks per task id
system.dcache.tags.age_task_id_blocks_1024::0           82                       # Occupied blocks per task id
system.dcache.tags.age_task_id_blocks_1024::1          174                       # Occupied blocks per task id
system.dcache.tags.occ_task_id_percent::1024            1                       # Percentage of cache occupancy per task id
system.dcache.tags.tag_accesses               6835353                       # Number of tag accesses
system.dcache.tags.data_accesses              6835353                       # Number of data accesses
system.dcache.tags.power_state.pwrStateResidencyTicks::UNDEFINED  92710858000                       # Cumulative time (in ticks) in various power states
system.cache_large.blocked_cycles::no_mshrs            0                       # number of cycles access was blocked
system.cache_large.blocked_cycles::no_targets            0                       # number of cycles access was blocked
system.cache_large.blocked::no_mshrs                0                       # number of cycles access was blocked
system.cache_large.blocked::no_targets              0                       # number of cycles access was blocked
system.cache_large.avg_blocked_cycles::no_mshrs          nan                       # average number of cycles each access was blocked
system.cache_large.avg_blocked_cycles::no_targets          nan                       # average number of cycles each access was blocked
system.cache_large.replacements                     0                       # number of replacements
system.cache_large.power_state.pwrStateResidencyTicks::UNDEFINED  92710858000                       # Cumulative time (in ticks) in various power states
system.cache_large.tags.tagsinuse                   0                       # Cycle average of tags in use
system.cache_large.tags.total_refs                  0                       # Total number of references to valid blocks.
system.cache_large.tags.sampled_refs                0                       # Sample count of references to valid blocks.
system.cache_large.tags.avg_refs                  nan                       # Average number of references to valid blocks.
system.cache_large.tags.warmup_cycle                0                       # Cycle when the warmup percentage was hit.
system.cache_large.tags.tag_accesses                0                       # Number of tag accesses
system.cache_large.tags.data_accesses               0                       # Number of data accesses
system.cache_large.tags.power_state.pwrStateResidencyTicks::UNDEFINED  92710858000                       # Cumulative time (in ticks) in various power states
system.l2cache.demand_hits::.cpu.inst              62                       # number of demand (read+write) hits
system.l2cache.demand_hits::.cpu.data              67                       # number of demand (read+write) hits
system.l2cache.demand_hits::total                 129                       # number of demand (read+write) hits
system.l2cache.overall_hits::.cpu.inst             62                       # number of overall hits
system.l2cache.overall_hits::.cpu.data             67                       # number of overall hits
system.l2cache.overall_hits::total                129                       # number of overall hits
system.l2cache.demand_misses::.cpu.inst           577                       # number of demand (read+write) misses
system.l2cache.demand_misses::.cpu.data        758785                       # number of demand (read+write) misses
system.l2cache.demand_misses::total            759362                       # number of demand (read+write) misses
system.l2cache.overall_misses::.cpu.inst          577                       # number of overall misses
system.l2cache.overall_misses::.cpu.data       758785                       # number of overall misses
system.l2cache.overall_misses::total           759362                       # number of overall misses
system.l2cache.demand_miss_latency::.cpu.inst     36352000                       # number of demand (read+write) miss cycles
system.l2cache.demand_miss_latency::.cpu.data  55531782000                       # number of demand (read+write) miss cycles
system.l2cache.demand_miss_latency::total  55568134000                       # number of demand (read+write) miss cycles
system.l2cache.overall_miss_latency::.cpu.inst     36352000                       # number of overall miss cycles
system.l2cache.overall_miss_latency::.cpu.data  55531782000                       # number of overall miss cycles
system.l2cache.overall_miss_latency::total  55568134000                       # number of overall miss cycles
system.l2cache.demand_accesses::.cpu.inst          639                       # number of demand (read+write) accesses
system.l2cache.demand_accesses::.cpu.data       758852                       # number of demand (read+write) accesses
system.l2cache.demand_accesses::total          759491                       # number of demand (read+write) accesses
system.l2cache.overall_accesses::.cpu.inst          639                       # number of overall (read+write) accesses
system.l2cache.overall_accesses::.cpu.data       758852                       # number of overall (read+write) accesses
system.l2cache.overall_accesses::total         759491                       # number of overall (read+write) accesses
system.l2cache.demand_miss_rate::.cpu.inst     0.902973                       # miss rate for demand accesses
system.l2cache.demand_miss_rate::.cpu.data     0.999912                       # miss rate for demand accesses
system.l2cache.demand_miss_rate::total       0.999830                       # miss rate for demand accesses
system.l2cache.overall_miss_rate::.cpu.inst     0.902973                       # miss rate for overall accesses
system.l2cache.overall_miss_rate::.cpu.data     0.999912                       # miss rate for overall accesses
system.l2cache.overall_miss_rate::total      0.999830                       # miss rate for overall accesses
system.l2cache.demand_avg_miss_latency::.cpu.inst 63001.733102                       # average overall miss latency
system.l2cache.demand_avg_miss_latency::.cpu.data 73185.134129                       # average overall miss latency
system.l2cache.demand_avg_miss_latency::total 73177.396288                       # average overall miss latency
system.l2cache.overall_avg_miss_latency::.cpu.inst 63001.733102                       # average overall miss latency
system.l2cache.overall_avg_miss_latency::.cpu.data 73185.134129                       # average overall miss latency
system.l2cache.overall_avg_miss_latency::total 73177.396288                       # average overall miss latency
system.l2cache.blocked_cycles::no_mshrs             0                       # number of cycles access was blocked
system.l2cache.blocked_cycles::no_targets            0                       # number of cycles access was blocked
system.l2cache.blocked::no_mshrs                    0                       # number of cycles access was blocked
system.l2cache.blocked::no_targets                  0                       # number of cycles access was blocked
system.l2cache.avg_blocked_cycles::no_mshrs          nan                       # average number of cycles each access was blocked
system.l2cache.avg_blocked_cycles::no_targets          nan                       # average number of cycles each access was blocked
system.l2cache.writebacks::.writebacks         758213                       # number of writebacks
system.l2cache.writebacks::total               758213                       # number of writebacks
system.l2cache.demand_mshr_misses::.cpu.inst          577                       # number of demand (read+write) MSHR misses
system.l2cache.demand_mshr_misses::.cpu.data       758785                       # number of demand (read+write) MSHR misses
system.l2cache.demand_mshr_misses::total       759362                       # number of demand (read+write) MSHR misses
system.l2cache.overall_mshr_misses::.cpu.inst          577                       # number of overall MSHR misses
system.l2cache.overall_mshr_misses::.cpu.data       758785                       # number of overall MSHR misses
system.l2cache.overall_mshr_misses::total       759362                       # number of overall MSHR misses
system.l2cache.demand_mshr_miss_latency::.cpu.inst     35198000                       # number of demand (read+write) MSHR miss cycles
system.l2cache.demand_mshr_miss_latency::.cpu.data  54014212000                       # number of demand (read+write) MSHR miss cycles
system.l2cache.demand_mshr_miss_latency::total  54049410000                       # number of demand (read+write) MSHR miss cycles
system.l2cache.overall_mshr_miss_latency::.cpu.inst     35198000                       # number of overall MSHR miss cycles
system.l2cache.overall_mshr_miss_latency::.cpu.data  54014212000                       # number of overall MSHR miss cycles
system.l2cache.overall_mshr_miss_latency::total  54049410000                       # number of overall MSHR miss cycles
system.l2cache.demand_mshr_miss_rate::.cpu.inst     0.902973                       # mshr miss rate for demand accesses
system.l2cache.demand_mshr_miss_rate::.cpu.data     0.999912                       # mshr miss rate for demand accesses
system.l2cache.demand_mshr_miss_rate::total     0.999830                       # mshr miss rate for demand accesses
system.l2cache.overall_mshr_miss_rate::.cpu.inst     0.902973                       # mshr miss rate for overall accesses
system.l2cache.overall_mshr_miss_rate::.cpu.data     0.999912                       # mshr miss rate for overall accesses
system.l2cache.overall_mshr_miss_rate::total     0.999830                       # mshr miss rate for overall accesses
system.l2cache.demand_avg_mshr_miss_latency::.cpu.inst 61001.733102                       # average overall mshr miss latency
system.l2cache.demand_avg_mshr_miss_latency::.cpu.data 71185.134129                       # average overall mshr miss latency
system.l2cache.demand_avg_mshr_miss_latency::total 71177.396288                       # average overall mshr miss latency
system.l2cache.overall_avg_mshr_miss_latency::.cpu.inst 61001.733102                       # average overall mshr miss latency
system.l2cache.overall_avg_mshr_miss_latency::.cpu.data 71185.134129                       # average overall mshr miss latency
system.l2cache.overall_avg_mshr_miss_latency::total 71177.396288                       # average overall mshr miss latency
system.l2cache.replacements                    758995                       # number of replacements
system.l2cache.ReadReq_hits::.cpu.inst             62                       # number of ReadReq hits
system.l2cache.ReadReq_hits::.cpu.data             67                       # number of ReadReq hits
system.l2cache.ReadReq_hits::total                129                       # number of ReadReq hits
system.l2cache.ReadReq_misses::.cpu.inst          577                       # number of ReadReq misses
system.l2cache.ReadReq_misses::.cpu.data       758785                       # number of ReadReq misses
system.l2cache.ReadReq_misses::total           759362                       # number of ReadReq misses
system.l2cache.ReadReq_miss_latency::.cpu.inst     36352000                       # number of ReadReq miss cycles
system.l2cache.ReadReq_miss_latency::.cpu.data  55531782000                       # number of ReadReq miss cycles
system.l2cache.ReadReq_miss_latency::total  55568134000                       # number of ReadReq miss cycles
system.l2cache.ReadReq_accesses::.cpu.inst          639                       # number of ReadReq accesses(hits+misses)
system.l2cache.ReadReq_accesses::.cpu.data       758852                       # number of ReadReq accesses(hits+misses)
system.l2cache.ReadReq_accesses::total         759491                       # number of ReadReq accesses(hits+misses)
system.l2cache.ReadReq_miss_rate::.cpu.inst     0.902973                       # miss rate for ReadReq accesses
system.l2cache.ReadReq_miss_rate::.cpu.data     0.999912                       # miss rate for ReadReq accesses
system.l2cache.ReadReq_miss_rate::total      0.999830                       # miss rate for ReadReq accesses
system.l2cache.ReadReq_avg_miss_latency::.cpu.inst 63001.733102                       # average ReadReq miss latency
system.l2cache.ReadReq_avg_miss_latency::.cpu.data 73185.134129                       # average ReadReq miss latency
system.l2cache.ReadReq_avg_miss_latency::total 73177.396288                       # average ReadReq miss latency
system.l2cache.ReadReq_mshr_misses::.cpu.inst          577                       # number of ReadReq MSHR misses
system.l2cache.ReadReq_mshr_misses::.cpu.data       758785                       # number of ReadReq MSHR misses
system.l2cache.ReadReq_mshr_misses::total       759362                       # number of ReadReq MSHR misses
system.l2cache.ReadReq_mshr_miss_latency::.cpu.inst     35198000                       # number of ReadReq MSHR miss cycles
system.l2cache.ReadReq_mshr_miss_latency::.cpu.data  54014212000                       # number of ReadReq MSHR miss cycles
system.l2cache.ReadReq_mshr_miss_latency::total  54049410000                       # number of ReadReq MSHR miss cycles
system.l2cache.ReadReq_mshr_miss_rate::.cpu.inst     0.902973                       # mshr miss rate for ReadReq accesses
system.l2cache.ReadReq_mshr_miss_rate::.cpu.data     0.999912                       # mshr miss rate for ReadReq accesses
system.l2cache.ReadReq_mshr_miss_rate::total     0.999830                       # mshr miss rate for ReadReq accesses
system.l2cache.ReadReq_avg_mshr_miss_latency::.cpu.inst 61001.733102                       # average ReadReq mshr miss latency
system.l2cache.ReadReq_avg_mshr_miss_latency::.cpu.data 71185.134129                       # average ReadReq mshr miss latency
system.l2cache.ReadReq_avg_mshr_miss_latency::total 71177.396288                       # average ReadReq mshr miss latency
system.l2cache.WritebackDirty_hits::.writebacks       758493                       # number of WritebackDirty hits
system.l2cache.WritebackDirty_hits::total       758493                       # number of WritebackDirty hits
system.l2cache.WritebackDirty_accesses::.writebacks       758493                       # number of WritebackDirty accesses(hits+misses)
system.l2cache.WritebackDirty_accesses::total       758493                       # number of WritebackDirty accesses(hits+misses)
system.l2cache.power_state.pwrStateResidencyTicks::UNDEFINED  92710858000                       # Cumulative time (in ticks) in various power states
system.l2cache.tags.tagsinuse              511.622459                       # Cycle average of tags in use
system.l2cache.tags.total_refs                1517984                       # Total number of references to valid blocks.
system.l2cache.tags.sampled_refs               759507                       # Sample count of references to valid blocks.
system.l2cache.tags.avg_refs                 1.998644                       # Average number of references to valid blocks.
system.l2cache.tags.warmup_cycle                78000                       # Cycle when the warmup percentage was hit.
system.l2cache.tags.occ_blocks::.writebacks     0.053732                       # Average occupied blocks per requestor
system.l2cache.tags.occ_blocks::.cpu.inst     0.320989                       # Average occupied blocks per requestor
system.l2cache.tags.occ_blocks::.cpu.data   511.247737                       # Average occupied blocks per requestor
system.l2cache.tags.occ_percent::.writebacks     0.000105                       # Average percentage of cache occupancy
system.l2cache.tags.occ_percent::.cpu.inst     0.000627                       # Average percentage of cache occupancy
system.l2cache.tags.occ_percent::.cpu.data     0.998531                       # Average percentage of cache occupancy
system.l2cache.tags.occ_percent::total       0.999263                       # Average percentage of cache occupancy
system.l2cache.tags.occ_task_id_blocks::1024          512                       # Occupied blocks per task id
system.l2cache.tags.age_task_id_blocks_1024::0           82                       # Occupied blocks per task id
system.l2cache.tags.age_task_id_blocks_1024::1          430                       # Occupied blocks per task id
system.l2cache.tags.occ_task_id_percent::1024            1                       # Percentage of cache occupancy per task id
system.l2cache.tags.tag_accesses              2277491                       # Number of tag accesses
system.l2cache.tags.data_accesses             2277491                       # Number of data accesses
system.l2cache.tags.power_state.pwrStateResidencyTicks::UNDEFINED  92710858000                       # Cumulative time (in ticks) in various power states
system.l2bar.trans_dist::ReadReq               759491                       # Transaction distribution
system.l2bar.trans_dist::ReadResp              759491                       # Transaction distribution
system.l2bar.trans_dist::WritebackDirty        758493                       # Transaction distribution
system.l2bar.pkt_count_system.dcache.mem_side::system.l2cache.cpu_side      2276197                       # Packet count per connected master and slave (bytes)
system.l2bar.pkt_count_system.icache.mem_side::system.l2cache.cpu_side         1278                       # Packet count per connected master and slave (bytes)
system.l2bar.pkt_count::total                 2277475                       # Packet count per connected master and slave (bytes)
system.l2bar.pkt_size_system.dcache.mem_side::system.l2cache.cpu_side     97110080                       # Cumulative packet size per connected master and slave (bytes)
system.l2bar.pkt_size_system.icache.mem_side::system.l2cache.cpu_side        40896                       # Cumulative packet size per connected master and slave (bytes)
system.l2bar.pkt_size::total                 97150976                       # Cumulative packet size per connected master and slave (bytes)
system.l2bar.respLayer1.occupancy             3195000                       # Layer occupancy (ticks)
system.l2bar.respLayer1.utilization               0.0                       # Layer utilization (%)
system.l2bar.reqLayer0.occupancy           4551956000                       # Layer occupancy (ticks)
system.l2bar.reqLayer0.utilization                4.9                       # Layer utilization (%)
system.l2bar.respLayer0.occupancy          3794260000                       # Layer occupancy (ticks)
system.l2bar.respLayer0.utilization               4.1                       # Layer utilization (%)
system.l2bar.power_state.pwrStateResidencyTicks::UNDEFINED  92710858000                       # Cumulative time (in ticks) in various power states
system.cpu.dtb.walker.power_state.pwrStateResidencyTicks::UNDEFINED  92710858000                       # Cumulative time (in ticks) in various power states
system.cpu.interrupts.clk_domain.clock          16000                       # Clock period in ticks
system.cpu.itb.walker.power_state.pwrStateResidencyTicks::UNDEFINED  92710858000                       # Cumulative time (in ticks) in various power states
system.cpu.power_state.numTransitions               1                       # Number of power state transitions
system.cpu.power_state.pwrStateResidencyTicks::ON  92710858000                       # Cumulative time (in ticks) in various power states

---------- End Simulation Statistics   ----------
