
---------- Begin Simulation Statistics ----------
final_tick                                 3905733000                       # Number of ticks from beginning of simulation (restored from checkpoints and never reset)
host_inst_rate                                 103187                       # Simulator instruction rate (inst/s)
host_mem_usage                               34343560                       # Number of bytes of host memory used
host_op_rate                                   207830                       # Simulator op (including micro ops) rate (op/s)
host_seconds                                     9.72                       # Real time elapsed on the host
host_tick_rate                              401803439                       # Simulator tick rate (ticks/s)
sim_freq                                 1000000000000                       # Frequency of simulated ticks
sim_insts                                     1002999                       # Number of instructions simulated
sim_ops                                       2020199                       # Number of ops (including micro ops) simulated
sim_seconds                                  0.003906                       # Number of seconds simulated
sim_ticks                                  3905733000                       # Number of ticks simulated
system.cpu.Branches                            240618                       # Number of branches fetched
system.cpu.committedInsts                     1002999                       # Number of instructions committed
system.cpu.committedOps                       2020199                       # Number of ops (including micro ops) committed
system.cpu.dtb.rdAccesses                      178450                       # TLB accesses on read requests
system.cpu.dtb.rdMisses                           266                       # TLB misses on read requests
system.cpu.dtb.wrAccesses                      135882                       # TLB accesses on write requests
system.cpu.dtb.wrMisses                           203                       # TLB misses on write requests
system.cpu.idle_fraction                            0                       # Percentage of idle cycles
system.cpu.itb.rdAccesses                           0                       # TLB accesses on read requests
system.cpu.itb.rdMisses                             0                       # TLB misses on read requests
system.cpu.itb.wrAccesses                     1297454                       # TLB accesses on write requests
system.cpu.itb.wrMisses                           178                       # TLB misses on write requests
system.cpu.not_idle_fraction                        1                       # Percentage of non-idle cycles
system.cpu.numCycles                          3905722                       # number of cpu cycles simulated
system.cpu.numWorkItemsCompleted                    0                       # number of work items this cpu completed
system.cpu.numWorkItemsStarted                      0                       # number of work items this cpu started
system.cpu.num_busy_cycles                    3905722                       # Number of busy cycles
system.cpu.num_cc_register_reads              1579059                       # number of times the CC registers were read
system.cpu.num_cc_register_writes              732123                       # number of times the CC registers were written
system.cpu.num_conditional_control_insts       202926                       # number of instructions that are conditional controls
system.cpu.num_fp_alu_accesses                  91342                       # Number of float alu accesses
system.cpu.num_fp_insts                         91342                       # number of float instructions
system.cpu.num_fp_register_reads               145075                       # number of times the floating registers were read
system.cpu.num_fp_register_writes               65447                       # number of times the floating registers were written
system.cpu.num_func_calls                       28341                       # number of times a function call or return occured
system.cpu.num_idle_cycles                          0                       # Number of idle cycles
system.cpu.num_int_alu_accesses               1943188                       # Number of integer alu accesses
system.cpu.num_int_insts                      1943188                       # number of integer instructions
system.cpu.num_int_register_reads             3546721                       # number of times the integer registers were read
system.cpu.num_int_register_writes            1572012                       # number of times the integer registers were written
system.cpu.num_load_insts                      177584                       # Number of load instructions
system.cpu.num_mem_refs                        313448                       # number of memory refs
system.cpu.num_store_insts                     135864                       # Number of store instructions
system.cpu.num_vec_alu_accesses                     0                       # Number of vector alu accesses
system.cpu.num_vec_insts                            0                       # number of vector instructions
system.cpu.num_vec_register_reads                   0                       # number of times the vector registers were read
system.cpu.num_vec_register_writes                  0                       # number of times the vector registers were written
system.cpu.op_class::No_OpClass                 23148      1.15%      1.15% # Class of executed instruction
system.cpu.op_class::IntAlu                   1619075     80.14%     81.29% # Class of executed instruction
system.cpu.op_class::IntMult                     1189      0.06%     81.35% # Class of executed instruction
system.cpu.op_class::IntDiv                      1176      0.06%     81.40% # Class of executed instruction
system.cpu.op_class::FloatAdd                     782      0.04%     81.44% # Class of executed instruction
system.cpu.op_class::FloatCmp                       0      0.00%     81.44% # Class of executed instruction
system.cpu.op_class::FloatCvt                       0      0.00%     81.44% # Class of executed instruction
system.cpu.op_class::FloatMult                      0      0.00%     81.44% # Class of executed instruction
system.cpu.op_class::FloatMultAcc                   0      0.00%     81.44% # Class of executed instruction
system.cpu.op_class::FloatDiv                       0      0.00%     81.44% # Class of executed instruction
system.cpu.op_class::FloatMisc                      0      0.00%     81.44% # Class of executed instruction
system.cpu.op_class::FloatSqrt                      0      0.00%     81.44% # Class of executed instruction
system.cpu.op_class::SimdAdd                     1870      0.09%     81.53% # Class of executed instruction
system.cpu.op_class::SimdAddAcc                     0      0.00%     81.53% # Class of executed instruction
system.cpu.op_class::SimdAlu                    30975      1.53%     83.07% # Class of executed instruction
system.cpu.op_class::SimdCmp                       50      0.00%     83.07% # Class of executed instruction
system.cpu.op_class::SimdCvt                    12648      0.63%     83.70% # Class of executed instruction
system.cpu.op_class::SimdMisc                   15123      0.75%     84.45% # Class of executed instruction
system.cpu.op_class::SimdMult                       0      0.00%     84.45% # Class of executed instruction
system.cpu.op_class::SimdMultAcc                    0      0.00%     84.45% # Class of executed instruction
system.cpu.op_class::SimdShift                    771      0.04%     84.48% # Class of executed instruction
system.cpu.op_class::SimdShiftAcc                   0      0.00%     84.48% # Class of executed instruction
system.cpu.op_class::SimdDiv                        0      0.00%     84.48% # Class of executed instruction
system.cpu.op_class::SimdSqrt                       0      0.00%     84.48% # Class of executed instruction
system.cpu.op_class::SimdFloatAdd                   2      0.00%     84.48% # Class of executed instruction
system.cpu.op_class::SimdFloatAlu                   0      0.00%     84.48% # Class of executed instruction
system.cpu.op_class::SimdFloatCmp                   2      0.00%     84.48% # Class of executed instruction
system.cpu.op_class::SimdFloatCvt                  17      0.00%     84.48% # Class of executed instruction
system.cpu.op_class::SimdFloatDiv                   1      0.00%     84.48% # Class of executed instruction
system.cpu.op_class::SimdFloatMisc                  0      0.00%     84.48% # Class of executed instruction
system.cpu.op_class::SimdFloatMult                 12      0.00%     84.48% # Class of executed instruction
system.cpu.op_class::SimdFloatMultAcc               0      0.00%     84.48% # Class of executed instruction
system.cpu.op_class::SimdFloatSqrt                  0      0.00%     84.48% # Class of executed instruction
system.cpu.op_class::SimdReduceAdd                  0      0.00%     84.48% # Class of executed instruction
system.cpu.op_class::SimdReduceAlu                  0      0.00%     84.48% # Class of executed instruction
system.cpu.op_class::SimdReduceCmp                  0      0.00%     84.48% # Class of executed instruction
system.cpu.op_class::SimdFloatReduceAdd             0      0.00%     84.48% # Class of executed instruction
system.cpu.op_class::SimdFloatReduceCmp             0      0.00%     84.48% # Class of executed instruction
system.cpu.op_class::SimdAes                        0      0.00%     84.48% # Class of executed instruction
system.cpu.op_class::SimdAesMix                     0      0.00%     84.48% # Class of executed instruction
system.cpu.op_class::SimdSha1Hash                   0      0.00%     84.48% # Class of executed instruction
system.cpu.op_class::SimdSha1Hash2                  0      0.00%     84.48% # Class of executed instruction
system.cpu.op_class::SimdSha256Hash                 0      0.00%     84.48% # Class of executed instruction
system.cpu.op_class::SimdSha256Hash2                0      0.00%     84.48% # Class of executed instruction
system.cpu.op_class::SimdShaSigma2                  0      0.00%     84.48% # Class of executed instruction
system.cpu.op_class::SimdShaSigma3                  0      0.00%     84.48% # Class of executed instruction
system.cpu.op_class::SimdPredAlu                    0      0.00%     84.48% # Class of executed instruction
system.cpu.op_class::MemRead                   165560      8.19%     92.68% # Class of executed instruction
system.cpu.op_class::MemWrite                  120253      5.95%     98.63% # Class of executed instruction
system.cpu.op_class::FloatMemRead               12024      0.60%     99.23% # Class of executed instruction
system.cpu.op_class::FloatMemWrite              15611      0.77%    100.00% # Class of executed instruction
system.cpu.op_class::IprAccess                      0      0.00%    100.00% # Class of executed instruction
system.cpu.op_class::InstPrefetch                   0      0.00%    100.00% # Class of executed instruction
system.cpu.op_class::total                    2020289                       # Class of executed instruction
system.cpu.workload.numSyscalls                    31                       # Number of system calls
system.dynamic_cache.flushTicks                     0                       # Ticks taken to flush
system.dynamic_cache.numFlushes                     0                       # Number of Flushes Taken
system.cache_small.demand_hits::.cpu.inst         4659                       # number of demand (read+write) hits
system.cache_small.demand_hits::.cpu.data         2145                       # number of demand (read+write) hits
system.cache_small.demand_hits::total            6804                       # number of demand (read+write) hits
system.cache_small.overall_hits::.cpu.inst         4659                       # number of overall hits
system.cache_small.overall_hits::.cpu.data         2145                       # number of overall hits
system.cache_small.overall_hits::total           6804                       # number of overall hits
system.cache_small.demand_misses::.cpu.inst         1606                       # number of demand (read+write) misses
system.cache_small.demand_misses::.cpu.data         4476                       # number of demand (read+write) misses
system.cache_small.demand_misses::total          6082                       # number of demand (read+write) misses
system.cache_small.overall_misses::.cpu.inst         1606                       # number of overall misses
system.cache_small.overall_misses::.cpu.data         4476                       # number of overall misses
system.cache_small.overall_misses::total         6082                       # number of overall misses
system.cache_small.demand_miss_latency::.cpu.inst     97489000                       # number of demand (read+write) miss cycles
system.cache_small.demand_miss_latency::.cpu.data    267242000                       # number of demand (read+write) miss cycles
system.cache_small.demand_miss_latency::total    364731000                       # number of demand (read+write) miss cycles
system.cache_small.overall_miss_latency::.cpu.inst     97489000                       # number of overall miss cycles
system.cache_small.overall_miss_latency::.cpu.data    267242000                       # number of overall miss cycles
system.cache_small.overall_miss_latency::total    364731000                       # number of overall miss cycles
system.cache_small.demand_accesses::.cpu.inst         6265                       # number of demand (read+write) accesses
system.cache_small.demand_accesses::.cpu.data         6621                       # number of demand (read+write) accesses
system.cache_small.demand_accesses::total        12886                       # number of demand (read+write) accesses
system.cache_small.overall_accesses::.cpu.inst         6265                       # number of overall (read+write) accesses
system.cache_small.overall_accesses::.cpu.data         6621                       # number of overall (read+write) accesses
system.cache_small.overall_accesses::total        12886                       # number of overall (read+write) accesses
system.cache_small.demand_miss_rate::.cpu.inst     0.256345                       # miss rate for demand accesses
system.cache_small.demand_miss_rate::.cpu.data     0.676031                       # miss rate for demand accesses
system.cache_small.demand_miss_rate::total     0.471985                       # miss rate for demand accesses
system.cache_small.overall_miss_rate::.cpu.inst     0.256345                       # miss rate for overall accesses
system.cache_small.overall_miss_rate::.cpu.data     0.676031                       # miss rate for overall accesses
system.cache_small.overall_miss_rate::total     0.471985                       # miss rate for overall accesses
system.cache_small.demand_avg_miss_latency::.cpu.inst 60702.988792                       # average overall miss latency
system.cache_small.demand_avg_miss_latency::.cpu.data 59705.540661                       # average overall miss latency
system.cache_small.demand_avg_miss_latency::total 59968.924696                       # average overall miss latency
system.cache_small.overall_avg_miss_latency::.cpu.inst 60702.988792                       # average overall miss latency
system.cache_small.overall_avg_miss_latency::.cpu.data 59705.540661                       # average overall miss latency
system.cache_small.overall_avg_miss_latency::total 59968.924696                       # average overall miss latency
system.cache_small.blocked_cycles::no_mshrs            0                       # number of cycles access was blocked
system.cache_small.blocked_cycles::no_targets            0                       # number of cycles access was blocked
system.cache_small.blocked::no_mshrs                0                       # number of cycles access was blocked
system.cache_small.blocked::no_targets              0                       # number of cycles access was blocked
system.cache_small.avg_blocked_cycles::no_mshrs          nan                       # average number of cycles each access was blocked
system.cache_small.avg_blocked_cycles::no_targets          nan                       # average number of cycles each access was blocked
system.cache_small.writebacks::.writebacks           42                       # number of writebacks
system.cache_small.writebacks::total               42                       # number of writebacks
system.cache_small.demand_mshr_misses::.cpu.inst         1606                       # number of demand (read+write) MSHR misses
system.cache_small.demand_mshr_misses::.cpu.data         4476                       # number of demand (read+write) MSHR misses
system.cache_small.demand_mshr_misses::total         6082                       # number of demand (read+write) MSHR misses
system.cache_small.overall_mshr_misses::.cpu.inst         1606                       # number of overall MSHR misses
system.cache_small.overall_mshr_misses::.cpu.data         4476                       # number of overall MSHR misses
system.cache_small.overall_mshr_misses::total         6082                       # number of overall MSHR misses
system.cache_small.demand_mshr_miss_latency::.cpu.inst     94277000                       # number of demand (read+write) MSHR miss cycles
system.cache_small.demand_mshr_miss_latency::.cpu.data    258290000                       # number of demand (read+write) MSHR miss cycles
system.cache_small.demand_mshr_miss_latency::total    352567000                       # number of demand (read+write) MSHR miss cycles
system.cache_small.overall_mshr_miss_latency::.cpu.inst     94277000                       # number of overall MSHR miss cycles
system.cache_small.overall_mshr_miss_latency::.cpu.data    258290000                       # number of overall MSHR miss cycles
system.cache_small.overall_mshr_miss_latency::total    352567000                       # number of overall MSHR miss cycles
system.cache_small.demand_mshr_miss_rate::.cpu.inst     0.256345                       # mshr miss rate for demand accesses
system.cache_small.demand_mshr_miss_rate::.cpu.data     0.676031                       # mshr miss rate for demand accesses
system.cache_small.demand_mshr_miss_rate::total     0.471985                       # mshr miss rate for demand accesses
system.cache_small.overall_mshr_miss_rate::.cpu.inst     0.256345                       # mshr miss rate for overall accesses
system.cache_small.overall_mshr_miss_rate::.cpu.data     0.676031                       # mshr miss rate for overall accesses
system.cache_small.overall_mshr_miss_rate::total     0.471985                       # mshr miss rate for overall accesses
system.cache_small.demand_avg_mshr_miss_latency::.cpu.inst 58702.988792                       # average overall mshr miss latency
system.cache_small.demand_avg_mshr_miss_latency::.cpu.data 57705.540661                       # average overall mshr miss latency
system.cache_small.demand_avg_mshr_miss_latency::total 57968.924696                       # average overall mshr miss latency
system.cache_small.overall_avg_mshr_miss_latency::.cpu.inst 58702.988792                       # average overall mshr miss latency
system.cache_small.overall_avg_mshr_miss_latency::.cpu.data 57705.540661                       # average overall mshr miss latency
system.cache_small.overall_avg_mshr_miss_latency::total 57968.924696                       # average overall mshr miss latency
system.cache_small.replacements                   210                       # number of replacements
system.cache_small.ReadReq_hits::.cpu.inst         4659                       # number of ReadReq hits
system.cache_small.ReadReq_hits::.cpu.data         2145                       # number of ReadReq hits
system.cache_small.ReadReq_hits::total           6804                       # number of ReadReq hits
system.cache_small.ReadReq_misses::.cpu.inst         1606                       # number of ReadReq misses
system.cache_small.ReadReq_misses::.cpu.data         4476                       # number of ReadReq misses
system.cache_small.ReadReq_misses::total         6082                       # number of ReadReq misses
system.cache_small.ReadReq_miss_latency::.cpu.inst     97489000                       # number of ReadReq miss cycles
system.cache_small.ReadReq_miss_latency::.cpu.data    267242000                       # number of ReadReq miss cycles
system.cache_small.ReadReq_miss_latency::total    364731000                       # number of ReadReq miss cycles
system.cache_small.ReadReq_accesses::.cpu.inst         6265                       # number of ReadReq accesses(hits+misses)
system.cache_small.ReadReq_accesses::.cpu.data         6621                       # number of ReadReq accesses(hits+misses)
system.cache_small.ReadReq_accesses::total        12886                       # number of ReadReq accesses(hits+misses)
system.cache_small.ReadReq_miss_rate::.cpu.inst     0.256345                       # miss rate for ReadReq accesses
system.cache_small.ReadReq_miss_rate::.cpu.data     0.676031                       # miss rate for ReadReq accesses
system.cache_small.ReadReq_miss_rate::total     0.471985                       # miss rate for ReadReq accesses
system.cache_small.ReadReq_avg_miss_latency::.cpu.inst 60702.988792                       # average ReadReq miss latency
system.cache_small.ReadReq_avg_miss_latency::.cpu.data 59705.540661                       # average ReadReq miss latency
system.cache_small.ReadReq_avg_miss_latency::total 59968.924696                       # average ReadReq miss latency
system.cache_small.ReadReq_mshr_misses::.cpu.inst         1606                       # number of ReadReq MSHR misses
system.cache_small.ReadReq_mshr_misses::.cpu.data         4476                       # number of ReadReq MSHR misses
system.cache_small.ReadReq_mshr_misses::total         6082                       # number of ReadReq MSHR misses
system.cache_small.ReadReq_mshr_miss_latency::.cpu.inst     94277000                       # number of ReadReq MSHR miss cycles
system.cache_small.ReadReq_mshr_miss_latency::.cpu.data    258290000                       # number of ReadReq MSHR miss cycles
system.cache_small.ReadReq_mshr_miss_latency::total    352567000                       # number of ReadReq MSHR miss cycles
system.cache_small.ReadReq_mshr_miss_rate::.cpu.inst     0.256345                       # mshr miss rate for ReadReq accesses
system.cache_small.ReadReq_mshr_miss_rate::.cpu.data     0.676031                       # mshr miss rate for ReadReq accesses
system.cache_small.ReadReq_mshr_miss_rate::total     0.471985                       # mshr miss rate for ReadReq accesses
system.cache_small.ReadReq_avg_mshr_miss_latency::.cpu.inst 58702.988792                       # average ReadReq mshr miss latency
system.cache_small.ReadReq_avg_mshr_miss_latency::.cpu.data 57705.540661                       # average ReadReq mshr miss latency
system.cache_small.ReadReq_avg_mshr_miss_latency::total 57968.924696                       # average ReadReq mshr miss latency
system.cache_small.WritebackDirty_hits::.writebacks         4606                       # number of WritebackDirty hits
system.cache_small.WritebackDirty_hits::total         4606                       # number of WritebackDirty hits
system.cache_small.WritebackDirty_accesses::.writebacks         4606                       # number of WritebackDirty accesses(hits+misses)
system.cache_small.WritebackDirty_accesses::total         4606                       # number of WritebackDirty accesses(hits+misses)
system.cache_small.power_state.pwrStateResidencyTicks::UNDEFINED   3905733000                       # Cumulative time (in ticks) in various power states
system.cache_small.tags.tagsinuse         4085.963038                       # Cycle average of tags in use
system.cache_small.tags.total_refs                534                       # Total number of references to valid blocks.
system.cache_small.tags.sampled_refs              210                       # Sample count of references to valid blocks.
system.cache_small.tags.avg_refs             2.542857                       # Average number of references to valid blocks.
system.cache_small.tags.warmup_cycle            76000                       # Cycle when the warmup percentage was hit.
system.cache_small.tags.occ_blocks::.writebacks    12.418037                       # Average occupied blocks per requestor
system.cache_small.tags.occ_blocks::.cpu.inst   927.377725                       # Average occupied blocks per requestor
system.cache_small.tags.occ_blocks::.cpu.data  3146.167276                       # Average occupied blocks per requestor
system.cache_small.tags.occ_percent::.writebacks     0.000189                       # Average percentage of cache occupancy
system.cache_small.tags.occ_percent::.cpu.inst     0.014151                       # Average percentage of cache occupancy
system.cache_small.tags.occ_percent::.cpu.data     0.048007                       # Average percentage of cache occupancy
system.cache_small.tags.occ_percent::total     0.062347                       # Average percentage of cache occupancy
system.cache_small.tags.occ_task_id_blocks::1024         5890                       # Occupied blocks per task id
system.cache_small.tags.age_task_id_blocks_1024::2          228                       # Occupied blocks per task id
system.cache_small.tags.age_task_id_blocks_1024::3         5662                       # Occupied blocks per task id
system.cache_small.tags.occ_task_id_percent::1024     0.089874                       # Percentage of cache occupancy per task id
system.cache_small.tags.tag_accesses            23592                       # Number of tag accesses
system.cache_small.tags.data_accesses           23592                       # Number of data accesses
system.cache_small.tags.power_state.pwrStateResidencyTicks::UNDEFINED   3905733000                       # Cumulative time (in ticks) in various power states
system.icache.demand_hits::.cpu.inst          1287143                       # number of demand (read+write) hits
system.icache.demand_hits::total              1287143                       # number of demand (read+write) hits
system.icache.overall_hits::.cpu.inst         1287143                       # number of overall hits
system.icache.overall_hits::total             1287143                       # number of overall hits
system.icache.demand_misses::.cpu.inst          10311                       # number of demand (read+write) misses
system.icache.demand_misses::total              10311                       # number of demand (read+write) misses
system.icache.overall_misses::.cpu.inst         10311                       # number of overall misses
system.icache.overall_misses::total             10311                       # number of overall misses
system.icache.demand_miss_latency::.cpu.inst    274215000                       # number of demand (read+write) miss cycles
system.icache.demand_miss_latency::total    274215000                       # number of demand (read+write) miss cycles
system.icache.overall_miss_latency::.cpu.inst    274215000                       # number of overall miss cycles
system.icache.overall_miss_latency::total    274215000                       # number of overall miss cycles
system.icache.demand_accesses::.cpu.inst      1297454                       # number of demand (read+write) accesses
system.icache.demand_accesses::total          1297454                       # number of demand (read+write) accesses
system.icache.overall_accesses::.cpu.inst      1297454                       # number of overall (read+write) accesses
system.icache.overall_accesses::total         1297454                       # number of overall (read+write) accesses
system.icache.demand_miss_rate::.cpu.inst     0.007947                       # miss rate for demand accesses
system.icache.demand_miss_rate::total        0.007947                       # miss rate for demand accesses
system.icache.overall_miss_rate::.cpu.inst     0.007947                       # miss rate for overall accesses
system.icache.overall_miss_rate::total       0.007947                       # miss rate for overall accesses
system.icache.demand_avg_miss_latency::.cpu.inst 26594.413733                       # average overall miss latency
system.icache.demand_avg_miss_latency::total 26594.413733                       # average overall miss latency
system.icache.overall_avg_miss_latency::.cpu.inst 26594.413733                       # average overall miss latency
system.icache.overall_avg_miss_latency::total 26594.413733                       # average overall miss latency
system.icache.blocked_cycles::no_mshrs              0                       # number of cycles access was blocked
system.icache.blocked_cycles::no_targets            0                       # number of cycles access was blocked
system.icache.blocked::no_mshrs                     0                       # number of cycles access was blocked
system.icache.blocked::no_targets                   0                       # number of cycles access was blocked
system.icache.avg_blocked_cycles::no_mshrs          nan                       # average number of cycles each access was blocked
system.icache.avg_blocked_cycles::no_targets          nan                       # average number of cycles each access was blocked
system.icache.demand_mshr_misses::.cpu.inst        10311                       # number of demand (read+write) MSHR misses
system.icache.demand_mshr_misses::total         10311                       # number of demand (read+write) MSHR misses
system.icache.overall_mshr_misses::.cpu.inst        10311                       # number of overall MSHR misses
system.icache.overall_mshr_misses::total        10311                       # number of overall MSHR misses
system.icache.demand_mshr_miss_latency::.cpu.inst    253593000                       # number of demand (read+write) MSHR miss cycles
system.icache.demand_mshr_miss_latency::total    253593000                       # number of demand (read+write) MSHR miss cycles
system.icache.overall_mshr_miss_latency::.cpu.inst    253593000                       # number of overall MSHR miss cycles
system.icache.overall_mshr_miss_latency::total    253593000                       # number of overall MSHR miss cycles
system.icache.demand_mshr_miss_rate::.cpu.inst     0.007947                       # mshr miss rate for demand accesses
system.icache.demand_mshr_miss_rate::total     0.007947                       # mshr miss rate for demand accesses
system.icache.overall_mshr_miss_rate::.cpu.inst     0.007947                       # mshr miss rate for overall accesses
system.icache.overall_mshr_miss_rate::total     0.007947                       # mshr miss rate for overall accesses
system.icache.demand_avg_mshr_miss_latency::.cpu.inst 24594.413733                       # average overall mshr miss latency
system.icache.demand_avg_mshr_miss_latency::total 24594.413733                       # average overall mshr miss latency
system.icache.overall_avg_mshr_miss_latency::.cpu.inst 24594.413733                       # average overall mshr miss latency
system.icache.overall_avg_mshr_miss_latency::total 24594.413733                       # average overall mshr miss latency
system.icache.replacements                      10055                       # number of replacements
system.icache.ReadReq_hits::.cpu.inst         1287143                       # number of ReadReq hits
system.icache.ReadReq_hits::total             1287143                       # number of ReadReq hits
system.icache.ReadReq_misses::.cpu.inst         10311                       # number of ReadReq misses
system.icache.ReadReq_misses::total             10311                       # number of ReadReq misses
system.icache.ReadReq_miss_latency::.cpu.inst    274215000                       # number of ReadReq miss cycles
system.icache.ReadReq_miss_latency::total    274215000                       # number of ReadReq miss cycles
system.icache.ReadReq_accesses::.cpu.inst      1297454                       # number of ReadReq accesses(hits+misses)
system.icache.ReadReq_accesses::total         1297454                       # number of ReadReq accesses(hits+misses)
system.icache.ReadReq_miss_rate::.cpu.inst     0.007947                       # miss rate for ReadReq accesses
system.icache.ReadReq_miss_rate::total       0.007947                       # miss rate for ReadReq accesses
system.icache.ReadReq_avg_miss_latency::.cpu.inst 26594.413733                       # average ReadReq miss latency
system.icache.ReadReq_avg_miss_latency::total 26594.413733                       # average ReadReq miss latency
system.icache.ReadReq_mshr_misses::.cpu.inst        10311                       # number of ReadReq MSHR misses
system.icache.ReadReq_mshr_misses::total        10311                       # number of ReadReq MSHR misses
system.icache.ReadReq_mshr_miss_latency::.cpu.inst    253593000                       # number of ReadReq MSHR miss cycles
system.icache.ReadReq_mshr_miss_latency::total    253593000                       # number of ReadReq MSHR miss cycles
system.icache.ReadReq_mshr_miss_rate::.cpu.inst     0.007947                       # mshr miss rate for ReadReq accesses
system.icache.ReadReq_mshr_miss_rate::total     0.007947                       # mshr miss rate for ReadReq accesses
system.icache.ReadReq_avg_mshr_miss_latency::.cpu.inst 24594.413733                       # average ReadReq mshr miss latency
system.icache.ReadReq_avg_mshr_miss_latency::total 24594.413733                       # average ReadReq mshr miss latency
system.icache.power_state.pwrStateResidencyTicks::UNDEFINED   3905733000                       # Cumulative time (in ticks) in various power states
system.icache.tags.tagsinuse               244.724063                       # Cycle average of tags in use
system.icache.tags.total_refs                  815513                       # Total number of references to valid blocks.
system.icache.tags.sampled_refs                 10055                       # Sample count of references to valid blocks.
system.icache.tags.avg_refs                 81.105221                       # Average number of references to valid blocks.
system.icache.tags.warmup_cycle                 82000                       # Cycle when the warmup percentage was hit.
system.icache.tags.occ_blocks::.cpu.inst   244.724063                       # Average occupied blocks per requestor
system.icache.tags.occ_percent::.cpu.inst     0.955953                       # Average percentage of cache occupancy
system.icache.tags.occ_percent::total        0.955953                       # Average percentage of cache occupancy
system.icache.tags.occ_task_id_blocks::1024          256                       # Occupied blocks per task id
system.icache.tags.age_task_id_blocks_1024::2           57                       # Occupied blocks per task id
system.icache.tags.age_task_id_blocks_1024::3          199                       # Occupied blocks per task id
system.icache.tags.occ_task_id_percent::1024            1                       # Percentage of cache occupancy per task id
system.icache.tags.tag_accesses               1307765                       # Number of tag accesses
system.icache.tags.data_accesses              1307765                       # Number of data accesses
system.icache.tags.power_state.pwrStateResidencyTicks::UNDEFINED   3905733000                       # Cumulative time (in ticks) in various power states
system.membus.trans_dist::ReadReq                6082                       # Transaction distribution
system.membus.trans_dist::ReadResp               6082                       # Transaction distribution
system.membus.trans_dist::WritebackDirty           42                       # Transaction distribution
system.membus.pkt_count_system.cache_small.mem_side::system.mem_ctrl.port        12206                       # Packet count per connected master and slave (bytes)
system.membus.pkt_count_system.cache_small.mem_side::total        12206                       # Packet count per connected master and slave (bytes)
system.membus.pkt_count::total                  12206                       # Packet count per connected master and slave (bytes)
system.membus.pkt_size_system.cache_small.mem_side::system.mem_ctrl.port       391936                       # Cumulative packet size per connected master and slave (bytes)
system.membus.pkt_size_system.cache_small.mem_side::total       391936                       # Cumulative packet size per connected master and slave (bytes)
system.membus.pkt_size::total                  391936                       # Cumulative packet size per connected master and slave (bytes)
system.membus.reqLayer2.occupancy             6292000                       # Layer occupancy (ticks)
system.membus.reqLayer2.utilization               0.2                       # Layer utilization (%)
system.membus.respLayer1.occupancy           32385000                       # Layer occupancy (ticks)
system.membus.respLayer1.utilization              0.8                       # Layer utilization (%)
system.membus.power_state.pwrStateResidencyTicks::UNDEFINED   3905733000                       # Cumulative time (in ticks) in various power states
system.mem_ctrl.bytes_read::.cpu.inst          102784                       # Number of bytes read from this memory
system.mem_ctrl.bytes_read::.cpu.data          286464                       # Number of bytes read from this memory
system.mem_ctrl.bytes_read::total              389248                       # Number of bytes read from this memory
system.mem_ctrl.bytes_inst_read::.cpu.inst       102784                       # Number of instructions bytes read from this memory
system.mem_ctrl.bytes_inst_read::total         102784                       # Number of instructions bytes read from this memory
system.mem_ctrl.bytes_written::.writebacks         2688                       # Number of bytes written to this memory
system.mem_ctrl.bytes_written::total             2688                       # Number of bytes written to this memory
system.mem_ctrl.num_reads::.cpu.inst             1606                       # Number of read requests responded to by this memory
system.mem_ctrl.num_reads::.cpu.data             4476                       # Number of read requests responded to by this memory
system.mem_ctrl.num_reads::total                 6082                       # Number of read requests responded to by this memory
system.mem_ctrl.num_writes::.writebacks            42                       # Number of write requests responded to by this memory
system.mem_ctrl.num_writes::total                  42                       # Number of write requests responded to by this memory
system.mem_ctrl.bw_read::.cpu.inst           26316187                       # Total read bandwidth from this memory (bytes/s)
system.mem_ctrl.bw_read::.cpu.data           73344491                       # Total read bandwidth from this memory (bytes/s)
system.mem_ctrl.bw_read::total               99660678                       # Total read bandwidth from this memory (bytes/s)
system.mem_ctrl.bw_inst_read::.cpu.inst      26316187                       # Instruction read bandwidth from this memory (bytes/s)
system.mem_ctrl.bw_inst_read::total          26316187                       # Instruction read bandwidth from this memory (bytes/s)
system.mem_ctrl.bw_write::.writebacks          688219                       # Write bandwidth from this memory (bytes/s)
system.mem_ctrl.bw_write::total                688219                       # Write bandwidth from this memory (bytes/s)
system.mem_ctrl.bw_total::.writebacks          688219                       # Total bandwidth to/from this memory (bytes/s)
system.mem_ctrl.bw_total::.cpu.inst          26316187                       # Total bandwidth to/from this memory (bytes/s)
system.mem_ctrl.bw_total::.cpu.data          73344491                       # Total bandwidth to/from this memory (bytes/s)
system.mem_ctrl.bw_total::total             100348897                       # Total bandwidth to/from this memory (bytes/s)
system.mem_ctrl.avgPriority_.writebacks::samples        42.00                       # Average QoS priority value for accepted requests
system.mem_ctrl.avgPriority_.cpu.inst::samples      1606.00                       # Average QoS priority value for accepted requests
system.mem_ctrl.avgPriority_.cpu.data::samples      4472.00                       # Average QoS priority value for accepted requests
system.mem_ctrl.priorityMinLatency       0.000000018750                       # per QoS priority minimum request to response latency (s)
system.mem_ctrl.priorityMaxLatency       0.004068840500                       # per QoS priority maximum request to response latency (s)
system.mem_ctrl.numReadWriteTurnArounds             1                       # Number of turnarounds from READ to WRITE
system.mem_ctrl.numWriteReadTurnArounds             1                       # Number of turnarounds from WRITE to READ
system.mem_ctrl.numStayReadState                13200                       # Number of times bus staying in READ state
system.mem_ctrl.numStayWriteState                  17                       # Number of times bus staying in WRITE state
system.mem_ctrl.readReqs                         6082                       # Number of read requests accepted
system.mem_ctrl.writeReqs                          42                       # Number of write requests accepted
system.mem_ctrl.readBursts                       6082                       # Number of DRAM read bursts, including those serviced by the write queue
system.mem_ctrl.writeBursts                        42                       # Number of DRAM write bursts, including those merged in the write queue
system.mem_ctrl.servicedByWrQ                       4                       # Number of DRAM read bursts serviced by the write queue
system.mem_ctrl.mergedWrBursts                      0                       # Number of DRAM write bursts merged with an existing one
system.mem_ctrl.neitherReadNorWriteReqs             0                       # Number of requests that are neither read nor write
system.mem_ctrl.perBankRdBursts::0                513                       # Per bank write bursts
system.mem_ctrl.perBankRdBursts::1                261                       # Per bank write bursts
system.mem_ctrl.perBankRdBursts::2                236                       # Per bank write bursts
system.mem_ctrl.perBankRdBursts::3                334                       # Per bank write bursts
system.mem_ctrl.perBankRdBursts::4                527                       # Per bank write bursts
system.mem_ctrl.perBankRdBursts::5                349                       # Per bank write bursts
system.mem_ctrl.perBankRdBursts::6                273                       # Per bank write bursts
system.mem_ctrl.perBankRdBursts::7                341                       # Per bank write bursts
system.mem_ctrl.perBankRdBursts::8                382                       # Per bank write bursts
system.mem_ctrl.perBankRdBursts::9                329                       # Per bank write bursts
system.mem_ctrl.perBankRdBursts::10               364                       # Per bank write bursts
system.mem_ctrl.perBankRdBursts::11               323                       # Per bank write bursts
system.mem_ctrl.perBankRdBursts::12               322                       # Per bank write bursts
system.mem_ctrl.perBankRdBursts::13               409                       # Per bank write bursts
system.mem_ctrl.perBankRdBursts::14               571                       # Per bank write bursts
system.mem_ctrl.perBankRdBursts::15               544                       # Per bank write bursts
system.mem_ctrl.perBankWrBursts::0                  0                       # Per bank write bursts
system.mem_ctrl.perBankWrBursts::1                  0                       # Per bank write bursts
system.mem_ctrl.perBankWrBursts::2                  0                       # Per bank write bursts
system.mem_ctrl.perBankWrBursts::3                  0                       # Per bank write bursts
system.mem_ctrl.perBankWrBursts::4                  0                       # Per bank write bursts
system.mem_ctrl.perBankWrBursts::5                  0                       # Per bank write bursts
system.mem_ctrl.perBankWrBursts::6                  0                       # Per bank write bursts
system.mem_ctrl.perBankWrBursts::7                  0                       # Per bank write bursts
system.mem_ctrl.perBankWrBursts::8                 12                       # Per bank write bursts
system.mem_ctrl.perBankWrBursts::9                  0                       # Per bank write bursts
system.mem_ctrl.perBankWrBursts::10                 5                       # Per bank write bursts
system.mem_ctrl.perBankWrBursts::11                 0                       # Per bank write bursts
system.mem_ctrl.perBankWrBursts::12                 0                       # Per bank write bursts
system.mem_ctrl.perBankWrBursts::13                 0                       # Per bank write bursts
system.mem_ctrl.perBankWrBursts::14                 1                       # Per bank write bursts
system.mem_ctrl.perBankWrBursts::15                 0                       # Per bank write bursts
system.mem_ctrl.avgRdQLen                        1.00                       # Average read queue length when enqueuing
system.mem_ctrl.avgWrQLen                       13.55                       # Average write queue length when enqueuing
system.mem_ctrl.totQLat                      48127000                       # Total ticks spent queuing
system.mem_ctrl.totBusLat                    30390000                       # Total ticks spent in databus transfers
system.mem_ctrl.totMemAccLat                162089500                       # Total ticks spent from burst creation until serviced by the DRAM
system.mem_ctrl.avgQLat                       7918.23                       # Average queueing delay per DRAM burst
system.mem_ctrl.avgBusLat                     5000.00                       # Average bus latency per DRAM burst
system.mem_ctrl.avgMemAccLat                 26668.23                       # Average memory access latency per DRAM burst
system.mem_ctrl.numRdRetry                          0                       # Number of times read queue was full causing retry
system.mem_ctrl.numWrRetry                          0                       # Number of times write queue was full causing retry
system.mem_ctrl.readRowHits                      4511                       # Number of row buffer hits during reads
system.mem_ctrl.writeRowHits                       15                       # Number of row buffer hits during writes
system.mem_ctrl.readRowHitRate                  74.22                       # Row buffer hit rate for reads
system.mem_ctrl.writeRowHitRate                 35.71                       # Row buffer hit rate for writes
system.mem_ctrl.readPktSize::0                      0                       # Read request sizes (log2)
system.mem_ctrl.readPktSize::1                      0                       # Read request sizes (log2)
system.mem_ctrl.readPktSize::2                      0                       # Read request sizes (log2)
system.mem_ctrl.readPktSize::3                      0                       # Read request sizes (log2)
system.mem_ctrl.readPktSize::4                      0                       # Read request sizes (log2)
system.mem_ctrl.readPktSize::5                      0                       # Read request sizes (log2)
system.mem_ctrl.readPktSize::6                   6082                       # Read request sizes (log2)
system.mem_ctrl.writePktSize::0                     0                       # Write request sizes (log2)
system.mem_ctrl.writePktSize::1                     0                       # Write request sizes (log2)
system.mem_ctrl.writePktSize::2                     0                       # Write request sizes (log2)
system.mem_ctrl.writePktSize::3                     0                       # Write request sizes (log2)
system.mem_ctrl.writePktSize::4                     0                       # Write request sizes (log2)
system.mem_ctrl.writePktSize::5                     0                       # Write request sizes (log2)
system.mem_ctrl.writePktSize::6                    42                       # Write request sizes (log2)
system.mem_ctrl.rdQLenPdf::0                     6077                       # What read queue length does an incoming req see
system.mem_ctrl.rdQLenPdf::1                        1                       # What read queue length does an incoming req see
system.mem_ctrl.rdQLenPdf::2                        0                       # What read queue length does an incoming req see
system.mem_ctrl.rdQLenPdf::3                        0                       # What read queue length does an incoming req see
system.mem_ctrl.rdQLenPdf::4                        0                       # What read queue length does an incoming req see
system.mem_ctrl.rdQLenPdf::5                        0                       # What read queue length does an incoming req see
system.mem_ctrl.rdQLenPdf::6                        0                       # What read queue length does an incoming req see
system.mem_ctrl.rdQLenPdf::7                        0                       # What read queue length does an incoming req see
system.mem_ctrl.rdQLenPdf::8                        0                       # What read queue length does an incoming req see
system.mem_ctrl.rdQLenPdf::9                        0                       # What read queue length does an incoming req see
system.mem_ctrl.rdQLenPdf::10                       0                       # What read queue length does an incoming req see
system.mem_ctrl.rdQLenPdf::11                       0                       # What read queue length does an incoming req see
system.mem_ctrl.rdQLenPdf::12                       0                       # What read queue length does an incoming req see
system.mem_ctrl.rdQLenPdf::13                       0                       # What read queue length does an incoming req see
system.mem_ctrl.rdQLenPdf::14                       0                       # What read queue length does an incoming req see
system.mem_ctrl.rdQLenPdf::15                       0                       # What read queue length does an incoming req see
system.mem_ctrl.rdQLenPdf::16                       0                       # What read queue length does an incoming req see
system.mem_ctrl.rdQLenPdf::17                       0                       # What read queue length does an incoming req see
system.mem_ctrl.rdQLenPdf::18                       0                       # What read queue length does an incoming req see
system.mem_ctrl.rdQLenPdf::19                       0                       # What read queue length does an incoming req see
system.mem_ctrl.rdQLenPdf::20                       0                       # What read queue length does an incoming req see
system.mem_ctrl.rdQLenPdf::21                       0                       # What read queue length does an incoming req see
system.mem_ctrl.rdQLenPdf::22                       0                       # What read queue length does an incoming req see
system.mem_ctrl.rdQLenPdf::23                       0                       # What read queue length does an incoming req see
system.mem_ctrl.rdQLenPdf::24                       0                       # What read queue length does an incoming req see
system.mem_ctrl.rdQLenPdf::25                       0                       # What read queue length does an incoming req see
system.mem_ctrl.rdQLenPdf::26                       0                       # What read queue length does an incoming req see
system.mem_ctrl.rdQLenPdf::27                       0                       # What read queue length does an incoming req see
system.mem_ctrl.rdQLenPdf::28                       0                       # What read queue length does an incoming req see
system.mem_ctrl.rdQLenPdf::29                       0                       # What read queue length does an incoming req see
system.mem_ctrl.rdQLenPdf::30                       0                       # What read queue length does an incoming req see
system.mem_ctrl.rdQLenPdf::31                       0                       # What read queue length does an incoming req see
system.mem_ctrl.wrQLenPdf::0                        1                       # What write queue length does an incoming req see
system.mem_ctrl.wrQLenPdf::1                        1                       # What write queue length does an incoming req see
system.mem_ctrl.wrQLenPdf::2                        1                       # What write queue length does an incoming req see
system.mem_ctrl.wrQLenPdf::3                        1                       # What write queue length does an incoming req see
system.mem_ctrl.wrQLenPdf::4                        1                       # What write queue length does an incoming req see
system.mem_ctrl.wrQLenPdf::5                        1                       # What write queue length does an incoming req see
system.mem_ctrl.wrQLenPdf::6                        1                       # What write queue length does an incoming req see
system.mem_ctrl.wrQLenPdf::7                        1                       # What write queue length does an incoming req see
system.mem_ctrl.wrQLenPdf::8                        1                       # What write queue length does an incoming req see
system.mem_ctrl.wrQLenPdf::9                        1                       # What write queue length does an incoming req see
system.mem_ctrl.wrQLenPdf::10                       1                       # What write queue length does an incoming req see
system.mem_ctrl.wrQLenPdf::11                       1                       # What write queue length does an incoming req see
system.mem_ctrl.wrQLenPdf::12                       1                       # What write queue length does an incoming req see
system.mem_ctrl.wrQLenPdf::13                       1                       # What write queue length does an incoming req see
system.mem_ctrl.wrQLenPdf::14                       1                       # What write queue length does an incoming req see
system.mem_ctrl.wrQLenPdf::15                       2                       # What write queue length does an incoming req see
system.mem_ctrl.wrQLenPdf::16                       2                       # What write queue length does an incoming req see
system.mem_ctrl.wrQLenPdf::17                       2                       # What write queue length does an incoming req see
system.mem_ctrl.wrQLenPdf::18                       2                       # What write queue length does an incoming req see
system.mem_ctrl.wrQLenPdf::19                       2                       # What write queue length does an incoming req see
system.mem_ctrl.wrQLenPdf::20                       2                       # What write queue length does an incoming req see
system.mem_ctrl.wrQLenPdf::21                       2                       # What write queue length does an incoming req see
system.mem_ctrl.wrQLenPdf::22                       2                       # What write queue length does an incoming req see
system.mem_ctrl.wrQLenPdf::23                       2                       # What write queue length does an incoming req see
system.mem_ctrl.wrQLenPdf::24                       1                       # What write queue length does an incoming req see
system.mem_ctrl.wrQLenPdf::25                       1                       # What write queue length does an incoming req see
system.mem_ctrl.wrQLenPdf::26                       1                       # What write queue length does an incoming req see
system.mem_ctrl.wrQLenPdf::27                       1                       # What write queue length does an incoming req see
system.mem_ctrl.wrQLenPdf::28                       1                       # What write queue length does an incoming req see
system.mem_ctrl.wrQLenPdf::29                       1                       # What write queue length does an incoming req see
system.mem_ctrl.wrQLenPdf::30                       1                       # What write queue length does an incoming req see
system.mem_ctrl.wrQLenPdf::31                       1                       # What write queue length does an incoming req see
system.mem_ctrl.wrQLenPdf::32                       1                       # What write queue length does an incoming req see
system.mem_ctrl.wrQLenPdf::33                       0                       # What write queue length does an incoming req see
system.mem_ctrl.wrQLenPdf::34                       0                       # What write queue length does an incoming req see
system.mem_ctrl.wrQLenPdf::35                       0                       # What write queue length does an incoming req see
system.mem_ctrl.wrQLenPdf::36                       0                       # What write queue length does an incoming req see
system.mem_ctrl.wrQLenPdf::37                       0                       # What write queue length does an incoming req see
system.mem_ctrl.wrQLenPdf::38                       0                       # What write queue length does an incoming req see
system.mem_ctrl.wrQLenPdf::39                       0                       # What write queue length does an incoming req see
system.mem_ctrl.wrQLenPdf::40                       0                       # What write queue length does an incoming req see
system.mem_ctrl.wrQLenPdf::41                       0                       # What write queue length does an incoming req see
system.mem_ctrl.wrQLenPdf::42                       0                       # What write queue length does an incoming req see
system.mem_ctrl.wrQLenPdf::43                       0                       # What write queue length does an incoming req see
system.mem_ctrl.wrQLenPdf::44                       0                       # What write queue length does an incoming req see
system.mem_ctrl.wrQLenPdf::45                       0                       # What write queue length does an incoming req see
system.mem_ctrl.wrQLenPdf::46                       0                       # What write queue length does an incoming req see
system.mem_ctrl.wrQLenPdf::47                       0                       # What write queue length does an incoming req see
system.mem_ctrl.wrQLenPdf::48                       0                       # What write queue length does an incoming req see
system.mem_ctrl.wrQLenPdf::49                       0                       # What write queue length does an incoming req see
system.mem_ctrl.wrQLenPdf::50                       0                       # What write queue length does an incoming req see
system.mem_ctrl.wrQLenPdf::51                       0                       # What write queue length does an incoming req see
system.mem_ctrl.wrQLenPdf::52                       0                       # What write queue length does an incoming req see
system.mem_ctrl.wrQLenPdf::53                       0                       # What write queue length does an incoming req see
system.mem_ctrl.wrQLenPdf::54                       0                       # What write queue length does an incoming req see
system.mem_ctrl.wrQLenPdf::55                       0                       # What write queue length does an incoming req see
system.mem_ctrl.wrQLenPdf::56                       0                       # What write queue length does an incoming req see
system.mem_ctrl.wrQLenPdf::57                       0                       # What write queue length does an incoming req see
system.mem_ctrl.wrQLenPdf::58                       0                       # What write queue length does an incoming req see
system.mem_ctrl.wrQLenPdf::59                       0                       # What write queue length does an incoming req see
system.mem_ctrl.wrQLenPdf::60                       0                       # What write queue length does an incoming req see
system.mem_ctrl.wrQLenPdf::61                       0                       # What write queue length does an incoming req see
system.mem_ctrl.wrQLenPdf::62                       0                       # What write queue length does an incoming req see
system.mem_ctrl.wrQLenPdf::63                       0                       # What write queue length does an incoming req see
system.mem_ctrl.bytesPerActivate::samples         1570                       # Bytes accessed per row activation
system.mem_ctrl.bytesPerActivate::mean     248.499363                       # Bytes accessed per row activation
system.mem_ctrl.bytesPerActivate::gmean    148.903299                       # Bytes accessed per row activation
system.mem_ctrl.bytesPerActivate::stdev    290.123176                       # Bytes accessed per row activation
system.mem_ctrl.bytesPerActivate::0-127           706     44.97%     44.97% # Bytes accessed per row activation
system.mem_ctrl.bytesPerActivate::128-255          381     24.27%     69.24% # Bytes accessed per row activation
system.mem_ctrl.bytesPerActivate::256-383          161     10.25%     79.49% # Bytes accessed per row activation
system.mem_ctrl.bytesPerActivate::384-511           70      4.46%     83.95% # Bytes accessed per row activation
system.mem_ctrl.bytesPerActivate::512-639           54      3.44%     87.39% # Bytes accessed per row activation
system.mem_ctrl.bytesPerActivate::640-767           30      1.91%     89.30% # Bytes accessed per row activation
system.mem_ctrl.bytesPerActivate::768-895           23      1.46%     90.76% # Bytes accessed per row activation
system.mem_ctrl.bytesPerActivate::896-1023           15      0.96%     91.72% # Bytes accessed per row activation
system.mem_ctrl.bytesPerActivate::1024-1151          130      8.28%    100.00% # Bytes accessed per row activation
system.mem_ctrl.bytesPerActivate::total          1570                       # Bytes accessed per row activation
system.mem_ctrl.rdPerTurnAround::samples            1                       # Reads before turning the bus around for writes
system.mem_ctrl.rdPerTurnAround::mean            4785                       # Reads before turning the bus around for writes
system.mem_ctrl.rdPerTurnAround::gmean    4785.000000                       # Reads before turning the bus around for writes
system.mem_ctrl.rdPerTurnAround::stdev            nan                       # Reads before turning the bus around for writes
system.mem_ctrl.rdPerTurnAround::4608-4863            1    100.00%    100.00% # Reads before turning the bus around for writes
system.mem_ctrl.rdPerTurnAround::total              1                       # Reads before turning the bus around for writes
system.mem_ctrl.wrPerTurnAround::samples            1                       # Writes before turning the bus around for reads
system.mem_ctrl.wrPerTurnAround::mean              18                       # Writes before turning the bus around for reads
system.mem_ctrl.wrPerTurnAround::gmean      18.000000                       # Writes before turning the bus around for reads
system.mem_ctrl.wrPerTurnAround::stdev            nan                       # Writes before turning the bus around for reads
system.mem_ctrl.wrPerTurnAround::18                 1    100.00%    100.00% # Writes before turning the bus around for reads
system.mem_ctrl.wrPerTurnAround::total              1                       # Writes before turning the bus around for reads
system.mem_ctrl.bytesReadDRAM                  388992                       # Total number of bytes read from DRAM
system.mem_ctrl.bytesReadWrQ                      256                       # Total number of bytes read from write queue
system.mem_ctrl.bytesWritten                     1152                       # Total number of bytes written to DRAM
system.mem_ctrl.bytesReadSys                   389248                       # Total read bytes from the system interface side
system.mem_ctrl.bytesWrittenSys                  2688                       # Total written bytes from the system interface side
system.mem_ctrl.avgRdBW                         99.60                       # Average DRAM read bandwidth in MiByte/s
system.mem_ctrl.avgWrBW                          0.29                       # Average achieved write bandwidth in MiByte/s
system.mem_ctrl.avgRdBWSys                      99.66                       # Average system read bandwidth in MiByte/s
system.mem_ctrl.avgWrBWSys                       0.69                       # Average system write bandwidth in MiByte/s
system.mem_ctrl.peakBW                       12800.00                       # Theoretical peak bandwidth in MiByte/s
system.mem_ctrl.busUtil                          0.78                       # Data bus utilization in percentage
system.mem_ctrl.busUtilRead                      0.78                       # Data bus utilization in percentage for reads
system.mem_ctrl.busUtilWrite                     0.00                       # Data bus utilization in percentage for writes
system.mem_ctrl.totGap                     3552001000                       # Total gap between requests
system.mem_ctrl.avgGap                      580013.23                       # Average gap between requests
system.mem_ctrl.masterReadBytes::.cpu.inst       102784                       # Per-master bytes read from memory
system.mem_ctrl.masterReadBytes::.cpu.data       286208                       # Per-master bytes read from memory
system.mem_ctrl.masterWriteBytes::.writebacks         1152                       # Per-master bytes write to memory
system.mem_ctrl.masterReadRate::.cpu.inst 26316186.999981820583                       # Per-master bytes read from memory rate (Bytes/sec)
system.mem_ctrl.masterReadRate::.cpu.data 73278946.615142405033                       # Per-master bytes read from memory rate (Bytes/sec)
system.mem_ctrl.masterWriteRate::.writebacks 294951.037359696638                       # Per-master bytes write to memory rate (Bytes/sec)
system.mem_ctrl.masterReadAccesses::.cpu.inst         1606                       # Per-master read serviced memory accesses
system.mem_ctrl.masterReadAccesses::.cpu.data         4476                       # Per-master read serviced memory accesses
system.mem_ctrl.masterWriteAccesses::.writebacks           42                       # Per-master write serviced memory accesses
system.mem_ctrl.masterReadTotalLat::.cpu.inst     43948250                       # Per-master read total memory access latency
system.mem_ctrl.masterReadTotalLat::.cpu.data    118141250                       # Per-master read total memory access latency
system.mem_ctrl.masterWriteTotalLat::.writebacks  13556104000                       # Per-master write total memory access latency
system.mem_ctrl.masterReadAvgLat::.cpu.inst     27365.04                       # Per-master read average memory access latency
system.mem_ctrl.masterReadAvgLat::.cpu.data     26394.38                       # Per-master read average memory access latency
system.mem_ctrl.masterWriteAvgLat::.writebacks 322764380.95                       # Per-master write average memory access latency
system.mem_ctrl.pageHitRate                     73.95                       # Row buffer hit rate, read and write combined
system.mem_ctrl.rank1.actEnergy               5954760                       # Energy for activate commands per rank (pJ)
system.mem_ctrl.rank1.preEnergy               3165030                       # Energy for precharge commands per rank (pJ)
system.mem_ctrl.rank1.readEnergy             23162160                       # Energy for read commands per rank (pJ)
system.mem_ctrl.rank1.writeEnergy               93960                       # Energy for write commands per rank (pJ)
system.mem_ctrl.rank1.refreshEnergy      307934640.000000                       # Energy for refresh commands per rank (pJ)
system.mem_ctrl.rank1.actBackEnergy         798564300                       # Energy for active background per rank (pJ)
system.mem_ctrl.rank1.preBackEnergy         827326560                       # Energy for precharge background per rank (pJ)
system.mem_ctrl.rank1.actPowerDownEnergy            0                       # Energy for active power-down per rank (pJ)
system.mem_ctrl.rank1.prePowerDownEnergy            0                       # Energy for precharge power-down per rank (pJ)
system.mem_ctrl.rank1.selfRefreshEnergy             0                       # Energy for self refresh per rank (pJ)
system.mem_ctrl.rank1.totalEnergy          1966201410                       # Total energy per rank (pJ)
system.mem_ctrl.rank1.averagePower         503.414189                       # Core power per rank (mW)
system.mem_ctrl.rank1.totalIdleTime                 0                       # Total Idle time Per DRAM Rank
system.mem_ctrl.rank1.memoryStateTime::IDLE   2142917500                       # Time in different power states
system.mem_ctrl.rank1.memoryStateTime::REF    130260000                       # Time in different power states
system.mem_ctrl.rank1.memoryStateTime::SREF            0                       # Time in different power states
system.mem_ctrl.rank1.memoryStateTime::PRE_PDN            0                       # Time in different power states
system.mem_ctrl.rank1.memoryStateTime::ACT   1632555500                       # Time in different power states
system.mem_ctrl.rank1.memoryStateTime::ACT_PDN            0                       # Time in different power states
system.mem_ctrl.rank0.actEnergy               5255040                       # Energy for activate commands per rank (pJ)
system.mem_ctrl.rank0.preEnergy               2793120                       # Energy for precharge commands per rank (pJ)
system.mem_ctrl.rank0.readEnergy             20234760                       # Energy for read commands per rank (pJ)
system.mem_ctrl.rank0.writeEnergy                   0                       # Energy for write commands per rank (pJ)
system.mem_ctrl.rank0.refreshEnergy      307934640.000000                       # Energy for refresh commands per rank (pJ)
system.mem_ctrl.rank0.actBackEnergy         661674810                       # Energy for active background per rank (pJ)
system.mem_ctrl.rank0.preBackEnergy         942601920                       # Energy for precharge background per rank (pJ)
system.mem_ctrl.rank0.actPowerDownEnergy            0                       # Energy for active power-down per rank (pJ)
system.mem_ctrl.rank0.prePowerDownEnergy            0                       # Energy for precharge power-down per rank (pJ)
system.mem_ctrl.rank0.selfRefreshEnergy             0                       # Energy for self refresh per rank (pJ)
system.mem_ctrl.rank0.totalEnergy          1940494290                       # Total energy per rank (pJ)
system.mem_ctrl.rank0.averagePower         496.832295                       # Core power per rank (mW)
system.mem_ctrl.rank0.totalIdleTime                 0                       # Total Idle time Per DRAM Rank
system.mem_ctrl.rank0.memoryStateTime::IDLE   2443643500                       # Time in different power states
system.mem_ctrl.rank0.memoryStateTime::REF    130260000                       # Time in different power states
system.mem_ctrl.rank0.memoryStateTime::SREF            0                       # Time in different power states
system.mem_ctrl.rank0.memoryStateTime::PRE_PDN            0                       # Time in different power states
system.mem_ctrl.rank0.memoryStateTime::ACT   1331829500                       # Time in different power states
system.mem_ctrl.rank0.memoryStateTime::ACT_PDN            0                       # Time in different power states
system.mem_ctrl.power_state.pwrStateResidencyTicks::UNDEFINED   3905733000                       # Cumulative time (in ticks) in various power states
system.cache_medium.blocked_cycles::no_mshrs            0                       # number of cycles access was blocked
system.cache_medium.blocked_cycles::no_targets            0                       # number of cycles access was blocked
system.cache_medium.blocked::no_mshrs               0                       # number of cycles access was blocked
system.cache_medium.blocked::no_targets             0                       # number of cycles access was blocked
system.cache_medium.avg_blocked_cycles::no_mshrs          nan                       # average number of cycles each access was blocked
system.cache_medium.avg_blocked_cycles::no_targets          nan                       # average number of cycles each access was blocked
system.cache_medium.replacements                    0                       # number of replacements
system.cache_medium.power_state.pwrStateResidencyTicks::UNDEFINED   3905733000                       # Cumulative time (in ticks) in various power states
system.cache_medium.tags.tagsinuse                  0                       # Cycle average of tags in use
system.cache_medium.tags.total_refs                 0                       # Total number of references to valid blocks.
system.cache_medium.tags.sampled_refs               0                       # Sample count of references to valid blocks.
system.cache_medium.tags.avg_refs                 nan                       # Average number of references to valid blocks.
system.cache_medium.tags.warmup_cycle               0                       # Cycle when the warmup percentage was hit.
system.cache_medium.tags.tag_accesses               0                       # Number of tag accesses
system.cache_medium.tags.data_accesses              0                       # Number of data accesses
system.cache_medium.tags.power_state.pwrStateResidencyTicks::UNDEFINED   3905733000                       # Cumulative time (in ticks) in various power states
system.clk_domain.clock                          1000                       # Clock period in ticks
system.clk_domain.voltage_domain.voltage            1                       # Voltage in Volts
system.dcache.demand_hits::.cpu.data           304309                       # number of demand (read+write) hits
system.dcache.demand_hits::total               304309                       # number of demand (read+write) hits
system.dcache.overall_hits::.cpu.data          304942                       # number of overall hits
system.dcache.overall_hits::total              304942                       # number of overall hits
system.dcache.demand_misses::.cpu.data           8959                       # number of demand (read+write) misses
system.dcache.demand_misses::total               8959                       # number of demand (read+write) misses
system.dcache.overall_misses::.cpu.data          9300                       # number of overall misses
system.dcache.overall_misses::total              9300                       # number of overall misses
system.dcache.demand_miss_latency::.cpu.data    415180000                       # number of demand (read+write) miss cycles
system.dcache.demand_miss_latency::total    415180000                       # number of demand (read+write) miss cycles
system.dcache.overall_miss_latency::.cpu.data    424729000                       # number of overall miss cycles
system.dcache.overall_miss_latency::total    424729000                       # number of overall miss cycles
system.dcache.demand_accesses::.cpu.data       313268                       # number of demand (read+write) accesses
system.dcache.demand_accesses::total           313268                       # number of demand (read+write) accesses
system.dcache.overall_accesses::.cpu.data       314242                       # number of overall (read+write) accesses
system.dcache.overall_accesses::total          314242                       # number of overall (read+write) accesses
system.dcache.demand_miss_rate::.cpu.data     0.028599                       # miss rate for demand accesses
system.dcache.demand_miss_rate::total        0.028599                       # miss rate for demand accesses
system.dcache.overall_miss_rate::.cpu.data     0.029595                       # miss rate for overall accesses
system.dcache.overall_miss_rate::total       0.029595                       # miss rate for overall accesses
system.dcache.demand_avg_miss_latency::.cpu.data 46342.225695                       # average overall miss latency
system.dcache.demand_avg_miss_latency::total 46342.225695                       # average overall miss latency
system.dcache.overall_avg_miss_latency::.cpu.data 45669.784946                       # average overall miss latency
system.dcache.overall_avg_miss_latency::total 45669.784946                       # average overall miss latency
system.dcache.blocked_cycles::no_mshrs              0                       # number of cycles access was blocked
system.dcache.blocked_cycles::no_targets            0                       # number of cycles access was blocked
system.dcache.blocked::no_mshrs                     0                       # number of cycles access was blocked
system.dcache.blocked::no_targets                   0                       # number of cycles access was blocked
system.dcache.avg_blocked_cycles::no_mshrs          nan                       # average number of cycles each access was blocked
system.dcache.avg_blocked_cycles::no_targets          nan                       # average number of cycles each access was blocked
system.dcache.writebacks::.writebacks            5741                       # number of writebacks
system.dcache.writebacks::total                  5741                       # number of writebacks
system.dcache.demand_mshr_misses::.cpu.data         8959                       # number of demand (read+write) MSHR misses
system.dcache.demand_mshr_misses::total          8959                       # number of demand (read+write) MSHR misses
system.dcache.overall_mshr_misses::.cpu.data         9300                       # number of overall MSHR misses
system.dcache.overall_mshr_misses::total         9300                       # number of overall MSHR misses
system.dcache.demand_mshr_miss_latency::.cpu.data    397264000                       # number of demand (read+write) MSHR miss cycles
system.dcache.demand_mshr_miss_latency::total    397264000                       # number of demand (read+write) MSHR miss cycles
system.dcache.overall_mshr_miss_latency::.cpu.data    406131000                       # number of overall MSHR miss cycles
system.dcache.overall_mshr_miss_latency::total    406131000                       # number of overall MSHR miss cycles
system.dcache.demand_mshr_miss_rate::.cpu.data     0.028599                       # mshr miss rate for demand accesses
system.dcache.demand_mshr_miss_rate::total     0.028599                       # mshr miss rate for demand accesses
system.dcache.overall_mshr_miss_rate::.cpu.data     0.029595                       # mshr miss rate for overall accesses
system.dcache.overall_mshr_miss_rate::total     0.029595                       # mshr miss rate for overall accesses
system.dcache.demand_avg_mshr_miss_latency::.cpu.data 44342.448934                       # average overall mshr miss latency
[...]
system.dcache.tags.age_task_id_blocks_1024::0            3                       # Occupied blocks per task id
system.dcache.tags.age_task_id_blocks_1024::1           19                       # Occupied blocks per task id
system.dcache.tags.age_task_id_blocks_1024::2          234                       # Occupied blocks per task id
system.dcache.tags.occ_task_id_percent::1024            1                       # Percentage of cache occupancy per task id
system.dcache.tags.tag_accesses               2764708                       # Number of tag accesses
system.dcache.tags.data_accesses              2764708                       # Number of data accesses
system.dcache.tags.power_state.pwrStateResidencyTicks::UNDEFINED  29750338000                       # Cumulative time (in ticks) in various power states
system.cache_large.blocked_cycles::no_mshrs            0                       # number of cycles access was blocked
system.cache_large.blocked_cycles::no_targets            0                       # number of cycles access was blocked
system.cache_large.blocked::no_mshrs                0                       # number of cycles access was blocked
system.cache_large.blocked::no_targets              0                       # number of cycles access was blocked
system.cache_large.avg_blocked_cycles::no_mshrs          nan                       # average number of cycles each access was blocked
system.cache_large.avg_blocked_cycles::no_targets          nan                       # average number of cycles each access was blocked
system.cache_large.replacements                     0                       # number of replacements
system.cache_large.power_state.pwrStateResidencyTicks::UNDEFINED  29750338000                       # Cumulative time (in ticks) in various power states
system.cache_large.tags.tagsinuse                   0                       # Cycle average of tags in use
system.cache_large.tags.total_refs                  0                       # Total number of references to valid blocks.
system.cache_large.tags.sampled_refs                0                       # Sample count of references to valid blocks.
system.cache_large.tags.avg_refs                  nan                       # Average number of references to valid blocks.
system.cache_large.tags.warmup_cycle                0                       # Cycle when the warmup percentage was hit.
system.cache_large.tags.tag_accesses                0                       # Number of tag accesses
system.cache_large.tags.data_accesses               0                       # Number of data accesses
system.cache_large.tags.power_state.pwrStateResidencyTicks::UNDEFINED  29750338000                       # Cumulative time (in ticks) in various power states
system.l2cache.demand_hits::.cpu.inst           85490                       # number of demand (read+write) hits
system.l2cache.demand_hits::.cpu.data           36632                       # number of demand (read+write) hits
system.l2cache.demand_hits::total              122122                       # number of demand (read+write) hits
system.l2cache.overall_hits::.cpu.inst          85490                       # number of overall hits
system.l2cache.overall_hits::.cpu.data          36632                       # number of overall hits
system.l2cache.overall_hits::total             122122                       # number of overall hits
system.l2cache.demand_misses::.cpu.inst         64956                       # number of demand (read+write) misses
system.l2cache.demand_misses::.cpu.data         60544                       # number of demand (read+write) misses
system.l2cache.demand_misses::total            125500                       # number of demand (read+write) misses
system.l2cache.overall_misses::.cpu.inst        64956                       # number of overall misses
system.l2cache.overall_misses::.cpu.data        60544                       # number of overall misses
system.l2cache.overall_misses::total           125500                       # number of overall misses
system.l2cache.demand_miss_latency::.cpu.inst   1141305000                       # number of demand (read+write) miss cycles
system.l2cache.demand_miss_latency::.cpu.data   2572596000                       # number of demand (read+write) miss cycles
system.l2cache.demand_miss_latency::total   3713901000                       # number of demand (read+write) miss cycles
system.l2cache.overall_miss_latency::.cpu.inst   1141305000                       # number of overall miss cycles
system.l2cache.overall_miss_latency::.cpu.data   2572596000                       # number of overall miss cycles
system.l2cache.overall_miss_latency::total   3713901000                       # number of overall miss cycles
system.l2cache.demand_accesses::.cpu.inst       150446                       # number of demand (read+write) accesses
system.l2cache.demand_accesses::.cpu.data        97176                       # number of demand (read+write) accesses
system.l2cache.demand_accesses::total          247622                       # number of demand (read+write) accesses
system.l2cache.overall_accesses::.cpu.inst       150446                       # number of overall (read+write) accesses
system.l2cache.overall_accesses::.cpu.data        97176                       # number of overall (read+write) accesses
system.l2cache.overall_accesses::total         247622                       # number of overall (read+write) accesses
system.l2cache.demand_miss_rate::.cpu.inst     0.431756                       # miss rate for demand accesses
system.l2cache.demand_miss_rate::.cpu.data     0.623034                       # miss rate for demand accesses
system.l2cache.demand_miss_rate::total       0.506821                       # miss rate for demand accesses
system.l2cache.overall_miss_rate::.cpu.inst     0.431756                       # miss rate for overall accesses
system.l2cache.overall_miss_rate::.cpu.data     0.623034                       # miss rate for overall accesses
system.l2cache.overall_miss_rate::total      0.506821                       # miss rate for overall accesses
system.l2cache.demand_avg_miss_latency::.cpu.inst 17570.432293                       # average overall miss latency
system.l2cache.demand_avg_miss_latency::.cpu.data 42491.345137                       # average overall miss latency
system.l2cache.demand_avg_miss_latency::total 29592.836653                       # average overall miss latency
system.l2cache.overall_avg_miss_latency::.cpu.inst 17570.432293                       # average overall miss latency
system.l2cache.overall_avg_miss_latency::.cpu.data 42491.345137                       # average overall miss latency
system.l2cache.overall_avg_miss_latency::total 29592.836653                       # average overall miss latency
system.l2cache.blocked_cycles::no_mshrs             0                       # number of cycles access was blocked
system.l2cache.blocked_cycles::no_targets            0                       # number of cycles access was blocked
system.l2cache.blocked::no_mshrs                    0                       # number of cycles access was blocked
system.l2cache.blocked::no_targets                  0                       # number of cycles access was blocked
system.l2cache.avg_blocked_cycles::no_mshrs          nan                       # average number of cycles each access was blocked
system.l2cache.avg_blocked_cycles::no_targets          nan                       # average number of cycles each access was blocked
system.l2cache.writebacks::.writebacks          41607                       # number of writebacks
system.l2cache.writebacks::total                41607                       # number of writebacks
system.l2cache.demand_mshr_misses::.cpu.inst        64956                       # number of demand (read+write) MSHR misses
system.l2cache.demand_mshr_misses::.cpu.data        60544                       # number of demand (read+write) MSHR misses
system.l2cache.demand_mshr_misses::total       125500                       # number of demand (read+write) MSHR misses
system.l2cache.overall_mshr_misses::.cpu.inst        64956                       # number of overall MSHR misses
system.l2cache.overall_mshr_misses::.cpu.data        60544                       # number of overall MSHR misses
system.l2cache.overall_mshr_misses::total       125500                       # number of overall MSHR misses
system.l2cache.demand_mshr_miss_latency::.cpu.inst   1011393000                       # number of demand (read+write) MSHR miss cycles
system.l2cache.demand_mshr_miss_latency::.cpu.data   2451508000                       # number of demand (read+write) MSHR miss cycles
system.l2cache.demand_mshr_miss_latency::total   3462901000                       # number of demand (read+write) MSHR miss cycles
system.l2cache.overall_mshr_miss_latency::.cpu.inst   1011393000                       # number of overall MSHR miss cycles
system.l2cache.overall_mshr_miss_latency::.cpu.data   2451508000                       # number of overall MSHR miss cycles
system.l2cache.overall_mshr_miss_latency::total   3462901000                       # number of overall MSHR miss cycles
system.l2cache.demand_mshr_miss_rate::.cpu.inst     0.431756                       # mshr miss rate for demand accesses
system.l2cache.demand_mshr_miss_rate::.cpu.data     0.623034                       # mshr miss rate for demand accesses
system.l2cache.demand_mshr_miss_rate::total     0.506821                       # mshr miss rate for demand accesses
system.l2cache.overall_mshr_miss_rate::.cpu.inst     0.431756                       # mshr miss rate for overall accesses
system.l2cache.overall_mshr_miss_rate::.cpu.data     0.623034                       # mshr miss rate for overall accesses
system.l2cache.overall_mshr_miss_rate::total     0.506821                       # mshr miss rate for overall accesses
system.l2cache.demand_avg_mshr_miss_latency::.cpu.inst 15570.432293                       # average overall mshr miss latency
system.l2cache.demand_avg_mshr_miss_latency::.cpu.data 40491.345137                       # average overall mshr miss latency
system.l2cache.demand_avg_mshr_miss_latency::total 27592.836653                       # average overall mshr miss latency
system.l2cache.overall_avg_mshr_miss_latency::.cpu.inst 15570.432293                       # average overall mshr miss latency
system.l2cache.overall_avg_mshr_miss_latency::.cpu.data 40491.345137                       # average overall mshr miss latency
system.l2cache.overall_avg_mshr_miss_latency::total 27592.836653                       # average overall mshr miss latency
system.l2cache.replacements                    149066                       # number of replacements
system.l2cache.ReadReq_hits::.cpu.inst          85490                       # number of ReadReq hits
system.l2cache.ReadReq_hits::.cpu.data          36632                       # number of ReadReq hits
system.l2cache.ReadReq_hits::total             122122                       # number of ReadReq hits
system.l2cache.ReadReq_misses::.cpu.inst        64956                       # number of ReadReq misses
system.l2cache.ReadReq_misses::.cpu.data        60544                       # number of ReadReq misses
system.l2cache.ReadReq_misses::total           125500                       # number of ReadReq misses
system.l2cache.ReadReq_miss_latency::.cpu.inst   1141305000                       # number of ReadReq miss cycles
system.l2cache.ReadReq_miss_latency::.cpu.data   2572596000                       # number of ReadReq miss cycles
system.l2cache.ReadReq_miss_latency::total   3713901000                       # number of ReadReq miss cycles
system.l2cache.ReadReq_accesses::.cpu.inst       150446                       # number of ReadReq accesses(hits+misses)
system.l2cache.ReadReq_accesses::.cpu.data        97176                       # number of ReadReq accesses(hits+misses)
system.l2cache.ReadReq_accesses::total         247622                       # number of ReadReq accesses(hits+misses)
system.l2cache.ReadReq_miss_rate::.cpu.inst     0.431756                       # miss rate for ReadReq accesses
system.l2cache.ReadReq_miss_rate::.cpu.data     0.623034                       # miss rate for ReadReq accesses
system.l2cache.ReadReq_miss_rate::total      0.506821                       # miss rate for ReadReq accesses
system.l2cache.ReadReq_avg_miss_latency::.cpu.inst 17570.432293                       # average ReadReq miss latency
system.l2cache.ReadReq_avg_miss_latency::.cpu.data 42491.345137                       # average ReadReq miss latency
system.l2cache.ReadReq_avg_miss_latency::total 29592.836653                       # average ReadReq miss latency
system.l2cache.ReadReq_mshr_misses::.cpu.inst        64956                       # number of ReadReq MSHR misses
system.l2cache.ReadReq_mshr_misses::.cpu.data        60544                       # number of ReadReq MSHR misses
system.l2cache.ReadReq_mshr_misses::total       125500                       # number of ReadReq MSHR misses
system.l2cache.ReadReq_mshr_miss_latency::.cpu.inst   1011393000                       # number of ReadReq MSHR miss cycles
system.l2cache.ReadReq_mshr_miss_latency::.cpu.data   2451508000                       # number of ReadReq MSHR miss cycles
system.l2cache.ReadReq_mshr_miss_latency::total   3462901000                       # number of ReadReq MSHR miss cycles
system.l2cache.ReadReq_mshr_miss_rate::.cpu.inst     0.431756                       # mshr miss rate for ReadReq accesses
system.l2cache.ReadReq_mshr_miss_rate::.cpu.data     0.623034                       # mshr miss rate for ReadReq accesses
system.l2cache.ReadReq_mshr_miss_rate::total     0.506821                       # mshr miss rate for ReadReq accesses
system.l2cache.ReadReq_avg_mshr_miss_latency::.cpu.inst 15570.432293                       # average ReadReq mshr miss latency
system.l2cache.ReadReq_avg_mshr_miss_latency::.cpu.data 40491.345137                       # average ReadReq mshr miss latency
system.l2cache.ReadReq_avg_mshr_miss_latency::total 27592.836653                       # average ReadReq mshr miss latency
system.l2cache.WritebackDirty_hits::.writebacks        50706                       # number of WritebackDirty hits
system.l2cache.WritebackDirty_hits::total        50706                       # number of WritebackDirty hits
system.l2cache.WritebackDirty_accesses::.writebacks        50706                       # number of WritebackDirty accesses(hits+misses)
system.l2cache.WritebackDirty_accesses::total        50706                       # number of WritebackDirty accesses(hits+misses)
system.l2cache.power_state.pwrStateResidencyTicks::UNDEFINED  29750338000                       # Cumulative time (in ticks) in various power states
system.l2cache.tags.tagsinuse              510.895239                       # Cycle average of tags in use
system.l2cache.tags.total_refs                 298328                       # Total number of references to valid blocks.
system.l2cache.tags.sampled_refs               149578                       # Sample count of references to valid blocks.
system.l2cache.tags.avg_refs                 1.994464                       # Average number of references to valid blocks.
system.l2cache.tags.warmup_cycle                78000                       # Cycle when the warmup percentage was hit.
system.l2cache.tags.occ_blocks::.writebacks   117.131470                       # Average occupied blocks per requestor
system.l2cache.tags.occ_blocks::.cpu.inst   129.477175                       # Average occupied blocks per requestor
system.l2cache.tags.occ_blocks::.cpu.data   264.286594                       # Average occupied blocks per requestor
system.l2cache.tags.occ_percent::.writebacks     0.228772                       # Average percentage of cache occupancy
system.l2cache.tags.occ_percent::.cpu.inst     0.252885                       # Average percentage of cache occupancy
system.l2cache.tags.occ_percent::.cpu.data     0.516185                       # Average percentage of cache occupancy
system.l2cache.tags.occ_percent::total       0.997842                       # Average percentage of cache occupancy
system.l2cache.tags.occ_task_id_blocks::1024          512                       # Occupied blocks per task id
system.l2cache.tags.age_task_id_blocks_1024::1           18                       # Occupied blocks per task id
system.l2cache.tags.age_task_id_blocks_1024::2          441                       # Occupied blocks per task id
system.l2cache.tags.age_task_id_blocks_1024::3           53                       # Occupied blocks per task id
system.l2cache.tags.occ_task_id_percent::1024            1                       # Percentage of cache occupancy per task id
system.l2cache.tags.tag_accesses               447906                       # Number of tag accesses
system.l2cache.tags.data_accesses              447906                       # Number of data accesses
system.l2cache.tags.power_state.pwrStateResidencyTicks::UNDEFINED  29750338000                       # Cumulative time (in ticks) in various power states
system.l2bar.trans_dist::ReadReq               247622                       # Transaction distribution
system.l2bar.trans_dist::ReadResp              247622                       # Transaction distribution
system.l2bar.trans_dist::WritebackDirty         50706                       # Transaction distribution
system.l2bar.pkt_count_system.dcache.mem_side::system.l2cache.cpu_side       245058                       # Packet count per connected master and slave (bytes)
system.l2bar.pkt_count_system.icache.mem_side::system.l2cache.cpu_side       300892                       # Packet count per connected master and slave (bytes)
system.l2bar.pkt_count::total                  545950                       # Packet count per connected master and slave (bytes)
system.l2bar.pkt_size_system.dcache.mem_side::system.l2cache.cpu_side      9464448                       # Cumulative packet size per connected master and slave (bytes)
system.l2bar.pkt_size_system.icache.mem_side::system.l2cache.cpu_side      9628544                       # Cumulative packet size per connected master and slave (bytes)
system.l2bar.pkt_size::total                 19092992                       # Cumulative packet size per connected master and slave (bytes)
system.l2bar.respLayer1.occupancy           752230000                       # Layer occupancy (ticks)
system.l2bar.respLayer1.utilization               2.5                       # Layer utilization (%)
system.l2bar.reqLayer0.occupancy            501152000                       # Layer occupancy (ticks)
system.l2bar.reqLayer0.utilization                1.7                       # Layer utilization (%)
system.l2bar.respLayer0.occupancy           485880000                       # Layer occupancy (ticks)
system.l2bar.respLayer0.utilization               1.6                       # Layer utilization (%)
system.l2bar.power_state.pwrStateResidencyTicks::UNDEFINED  29750338000                       # Cumulative time (in ticks) in various power states
system.cpu.dtb.walker.power_state.pwrStateResidencyTicks::UNDEFINED  29750338000                       # Cumulative time (in ticks) in various power states
system.cpu.interrupts.clk_domain.clock          16000                       # Clock period in ticks
system.cpu.itb.walker.power_state.pwrStateResidencyTicks::UNDEFINED  29750338000                       # Cumulative time (in ticks) in various power states
system.cpu.power_state.numTransitions               1                       # Number of power state transitions
system.cpu.power_state.pwrStateResidencyTicks::ON  29750338000                       # Cumulative time (in ticks) in various power states

---------- End Simulation Statistics   ----------
