
---------- Begin Simulation Statistics ----------
final_tick                                12065580000                       # Number of ticks from beginning of simulation (restored from checkpoints and never reset)
host_inst_rate                                  61003                       # Simulator instruction rate (inst/s)
host_mem_usage                               34256796                       # Number of bytes of host memory used
host_op_rate                                    76272                       # Simulator op (including micro ops) rate (op/s)
host_seconds                                    16.39                       # Real time elapsed on the host
host_tick_rate                              736016764                       # Simulator tick rate (ticks/s)
sim_freq                                 1000000000000                       # Frequency of simulated ticks
sim_insts                                     1000002                       # Number of instructions simulated
sim_ops                                       1250324                       # Number of ops (including micro ops) simulated
sim_seconds                                  0.012066                       # Number of seconds simulated
sim_ticks                                 12065580000                       # Number of ticks simulated
system.cpu.Branches                             51458                       # Number of branches fetched
system.cpu.committedInsts                     1000002                       # Number of instructions committed
system.cpu.committedOps                       1250324                       # Number of ops (including micro ops) committed
system.cpu.dtb.rdAccesses                       11078                       # TLB accesses on read requests
system.cpu.dtb.rdMisses                            18                       # TLB misses on read requests
system.cpu.dtb.wrAccesses                      802053                       # TLB accesses on write requests
system.cpu.dtb.wrMisses                          3118                       # TLB misses on write requests
system.cpu.idle_fraction                            0                       # Percentage of idle cycles
system.cpu.itb.rdAccesses                           0                       # TLB accesses on read requests
system.cpu.itb.rdMisses                             0                       # TLB misses on read requests
system.cpu.itb.wrAccesses                     1534485                       # TLB accesses on write requests
system.cpu.itb.wrMisses                            67                       # TLB misses on write requests
system.cpu.not_idle_fraction                        1                       # Percentage of non-idle cycles
system.cpu.numCycles                         12065569                       # number of cpu cycles simulated
system.cpu.numWorkItemsCompleted                    0                       # number of work items this cpu completed
system.cpu.numWorkItemsStarted                      0                       # number of work items this cpu started
system.cpu.num_busy_cycles                   12065569                       # Number of busy cycles
system.cpu.num_cc_register_reads               260664                       # number of times the CC registers were read
system.cpu.num_cc_register_writes              268109                       # number of times the CC registers were written
system.cpu.num_conditional_control_insts        48746                       # number of instructions that are conditional controls
system.cpu.num_fp_alu_accesses                 756377                       # Number of float alu accesses
system.cpu.num_fp_insts                        756377                       # number of float instructions
system.cpu.num_fp_register_reads               758042                       # number of times the floating registers were read
system.cpu.num_fp_register_writes                2039                       # number of times the floating registers were written
system.cpu.num_func_calls                        1735                       # number of times a function call or return occured
system.cpu.num_idle_cycles                          0                       # Number of idle cycles
system.cpu.num_int_alu_accesses               1249141                       # Number of integer alu accesses
system.cpu.num_int_insts                      1249141                       # number of integer instructions
system.cpu.num_int_register_reads             3012244                       # number of times the integer registers were read
system.cpu.num_int_register_writes             396210                       # number of times the integer registers were written
system.cpu.num_load_insts                       11030                       # Number of load instructions
system.cpu.num_mem_refs                        813082                       # number of memory refs
system.cpu.num_store_insts                     802052                       # Number of store instructions
system.cpu.num_vec_alu_accesses                     0                       # Number of vector alu accesses
system.cpu.num_vec_insts                            0                       # number of vector instructions
system.cpu.num_vec_register_reads                   0                       # number of times the vector registers were read
system.cpu.num_vec_register_writes                  0                       # number of times the vector registers were written
system.cpu.op_class::No_OpClass                   851      0.07%      0.07% # Class of executed instruction
system.cpu.op_class::IntAlu                    435690     34.80%     34.87% # Class of executed instruction
system.cpu.op_class::IntMult                      170      0.01%     34.88% # Class of executed instruction
system.cpu.op_class::IntDiv                       105      0.01%     34.89% # Class of executed instruction
system.cpu.op_class::FloatAdd                      22      0.00%     34.89% # Class of executed instruction
system.cpu.op_class::FloatCmp                       0      0.00%     34.89% # Class of executed instruction
system.cpu.op_class::FloatCvt                       0      0.00%     34.89% # Class of executed instruction
system.cpu.op_class::FloatMult                      0      0.00%     34.89% # Class of executed instruction
system.cpu.op_class::FloatMultAcc                   0      0.00%     34.89% # Class of executed instruction
system.cpu.op_class::FloatDiv                       0      0.00%     34.89% # Class of executed instruction
system.cpu.op_class::FloatMisc                      0      0.00%     34.89% # Class of executed instruction
system.cpu.op_class::FloatSqrt                      0      0.00%     34.89% # Class of executed instruction
system.cpu.op_class::SimdAdd                        0      0.00%     34.89% # Class of executed instruction
system.cpu.op_class::SimdAddAcc                     0      0.00%     34.89% # Class of executed instruction
system.cpu.op_class::SimdAlu                     1024      0.08%     34.98% # Class of executed instruction
system.cpu.op_class::SimdCmp                        0      0.00%     34.98% # Class of executed instruction
system.cpu.op_class::SimdCvt                      426      0.03%     35.01% # Class of executed instruction
system.cpu.op_class::SimdMisc                     507      0.04%     35.05% # Class of executed instruction
system.cpu.op_class::SimdMult                       0      0.00%     35.05% # Class of executed instruction
system.cpu.op_class::SimdMultAcc                    0      0.00%     35.05% # Class of executed instruction
system.cpu.op_class::SimdShift                      0      0.00%     35.05% # Class of executed instruction
system.cpu.op_class::SimdShiftAcc                   0      0.00%     35.05% # Class of executed instruction
system.cpu.op_class::SimdDiv                        0      0.00%     35.05% # Class of executed instruction
system.cpu.op_class::SimdSqrt                       0      0.00%     35.05% # Class of executed instruction
system.cpu.op_class::SimdFloatAdd                   0      0.00%     35.05% # Class of executed instruction
system.cpu.op_class::SimdFloatAlu                   0      0.00%     35.05% # Class of executed instruction
system.cpu.op_class::SimdFloatCmp                   0      0.00%     35.05% # Class of executed instruction
system.cpu.op_class::SimdFloatCvt                   2      0.00%     35.05% # Class of executed instruction
system.cpu.op_class::SimdFloatDiv                   0      0.00%     35.05% # Class of executed instruction
system.cpu.op_class::SimdFloatMisc                  0      0.00%     35.05% # Class of executed instruction
system.cpu.op_class::SimdFloatMult                  0      0.00%     35.05% # Class of executed instruction
system.cpu.op_class::SimdFloatMultAcc               0      0.00%     35.05% # Class of executed instruction
system.cpu.op_class::SimdFloatSqrt                  0      0.00%     35.05% # Class of executed instruction
system.cpu.op_class::SimdReduceAdd                  0      0.00%     35.05% # Class of executed instruction
system.cpu.op_class::SimdReduceAlu                  0      0.00%     35.05% # Class of executed instruction
system.cpu.op_class::SimdReduceCmp                  0      0.00%     35.05% # Class of executed instruction
system.cpu.op_class::SimdFloatReduceAdd             0      0.00%     35.05% # Class of executed instruction
system.cpu.op_class::SimdFloatReduceCmp             0      0.00%     35.05% # Class of executed instruction
system.cpu.op_class::SimdAes                        0      0.00%     35.05% # Class of executed instruction
system.cpu.op_class::SimdAesMix                     0      0.00%     35.05% # Class of executed instruction
system.cpu.op_class::SimdSha1Hash                   0      0.00%     35.05% # Class of executed instruction
system.cpu.op_class::SimdSha1Hash2                  0      0.00%     35.05% # Class of executed instruction
system.cpu.op_class::SimdSha256Hash                 0      0.00%     35.05% # Class of executed instruction
system.cpu.op_class::SimdSha256Hash2                0      0.00%     35.05% # Class of executed instruction
system.cpu.op_class::SimdShaSigma2                  0      0.00%     35.05% # Class of executed instruction
system.cpu.op_class::SimdShaSigma3                  0      0.00%     35.05% # Class of executed instruction
system.cpu.op_class::SimdPredAlu                    0      0.00%     35.05% # Class of executed instruction
system.cpu.op_class::MemRead                    10660      0.85%     35.90% # Class of executed instruction
system.cpu.op_class::MemWrite                   48094      3.84%     39.74% # Class of executed instruction
system.cpu.op_class::FloatMemRead                 370      0.03%     39.77% # Class of executed instruction
system.cpu.op_class::FloatMemWrite             753958     60.23%    100.00% # Class of executed instruction
system.cpu.op_class::IprAccess                      0      0.00%    100.00% # Class of executed instruction
system.cpu.op_class::InstPrefetch                   0      0.00%    100.00% # Class of executed instruction
system.cpu.op_class::total                    1251879                       # Class of executed instruction
system.cpu.workload.numSyscalls                    90                       # Number of system calls
system.dynamic_cache.flushTicks                     0                       # Ticks taken to flush
system.dynamic_cache.numFlushes                     0                       # Number of Flushes Taken
system.cache_small.demand_hits::.cpu.inst          139                       # number of demand (read+write) hits
system.cache_small.demand_hits::.cpu.data           18                       # number of demand (read+write) hits
system.cache_small.demand_hits::total             157                       # number of demand (read+write) hits
system.cache_small.overall_hits::.cpu.inst          139                       # number of overall hits
system.cache_small.overall_hits::.cpu.data           18                       # number of overall hits
system.cache_small.overall_hits::total            157                       # number of overall hits
system.cache_small.demand_misses::.cpu.inst          750                       # number of demand (read+write) misses
system.cache_small.demand_misses::.cpu.data        99512                       # number of demand (read+write) misses
system.cache_small.demand_misses::total        100262                       # number of demand (read+write) misses
system.cache_small.overall_misses::.cpu.inst          750                       # number of overall misses
system.cache_small.overall_misses::.cpu.data        99512                       # number of overall misses
system.cache_small.overall_misses::total       100262                       # number of overall misses
system.cache_small.demand_miss_latency::.cpu.inst     44382000                       # number of demand (read+write) miss cycles
system.cache_small.demand_miss_latency::.cpu.data   5817560000                       # number of demand (read+write) miss cycles
system.cache_small.demand_miss_latency::total   5861942000                       # number of demand (read+write) miss cycles
system.cache_small.overall_miss_latency::.cpu.inst     44382000                       # number of overall miss cycles
system.cache_small.overall_miss_latency::.cpu.data   5817560000                       # number of overall miss cycles
system.cache_small.overall_miss_latency::total   5861942000                       # number of overall miss cycles
system.cache_small.demand_accesses::.cpu.inst          889                       # number of demand (read+write) accesses
system.cache_small.demand_accesses::.cpu.data        99530                       # number of demand (read+write) accesses
system.cache_small.demand_accesses::total       100419                       # number of demand (read+write) accesses
system.cache_small.overall_accesses::.cpu.inst          889                       # number of overall (read+write) accesses
system.cache_small.overall_accesses::.cpu.data        99530                       # number of overall (read+write) accesses
system.cache_small.overall_accesses::total       100419                       # number of overall (read+write) accesses
system.cache_small.demand_miss_rate::.cpu.inst     0.843645                       # miss rate for demand accesses
system.cache_small.demand_miss_rate::.cpu.data     0.999819                       # miss rate for demand accesses
system.cache_small.demand_miss_rate::total     0.998437                       # miss rate for demand accesses
system.cache_small.overall_miss_rate::.cpu.inst     0.843645                       # miss rate for overall accesses
system.cache_small.overall_miss_rate::.cpu.data     0.999819                       # miss rate for overall accesses
system.cache_small.overall_miss_rate::total     0.998437                       # miss rate for overall accesses
system.cache_small.demand_avg_miss_latency::.cpu.inst        59176                       # average overall miss latency
system.cache_small.demand_avg_miss_latency::.cpu.data 58460.889139                       # average overall miss latency
system.cache_small.demand_avg_miss_latency::total 58466.238455                       # average overall miss latency
system.cache_small.overall_avg_miss_latency::.cpu.inst        59176                       # average overall miss latency
system.cache_small.overall_avg_miss_latency::.cpu.data 58460.889139                       # average overall miss latency
system.cache_small.overall_avg_miss_latency::total 58466.238455                       # average overall miss latency
system.cache_small.blocked_cycles::no_mshrs            0                       # number of cycles access was blocked
system.cache_small.blocked_cycles::no_targets            0                       # number of cycles access was blocked
system.cache_small.blocked::no_mshrs                0                       # number of cycles access was blocked
system.cache_small.blocked::no_targets              0                       # number of cycles access was blocked
system.cache_small.avg_blocked_cycles::no_mshrs          nan                       # average number of cycles each access was blocked
system.cache_small.avg_blocked_cycles::no_targets          nan                       # average number of cycles each access was blocked
system.cache_small.writebacks::.writebacks        33884                       # number of writebacks
system.cache_small.writebacks::total            33884                       # number of writebacks
system.cache_small.demand_mshr_misses::.cpu.inst          750                       # number of demand (read+write) MSHR misses
system.cache_small.demand_mshr_misses::.cpu.data        99512                       # number of demand (read+write) MSHR misses
system.cache_small.demand_mshr_misses::total       100262                       # number of demand (read+write) MSHR misses
system.cache_small.overall_mshr_misses::.cpu.inst          750                       # number of overall MSHR misses
system.cache_small.overall_mshr_misses::.cpu.data        99512                       # number of overall MSHR misses
system.cache_small.overall_mshr_misses::total       100262                       # number of overall MSHR misses
system.cache_small.demand_mshr_miss_latency::.cpu.inst     42882000                       # number of demand (read+write) MSHR miss cycles
system.cache_small.demand_mshr_miss_latency::.cpu.data   5618536000                       # number of demand (read+write) MSHR miss cycles
system.cache_small.demand_mshr_miss_latency::total   5661418000                       # number of demand (read+write) MSHR miss cycles
system.cache_small.overall_mshr_miss_latency::.cpu.inst     42882000                       # number of overall MSHR miss cycles
system.cache_small.overall_mshr_miss_latency::.cpu.data   5618536000                       # number of overall MSHR miss cycles
system.cache_small.overall_mshr_miss_latency::total   5661418000                       # number of overall MSHR miss cycles
system.cache_small.demand_mshr_miss_rate::.cpu.inst     0.843645                       # mshr miss rate for demand accesses
system.cache_small.demand_mshr_miss_rate::.cpu.data     0.999819                       # mshr miss rate for demand accesses
system.cache_small.demand_mshr_miss_rate::total     0.998437                       # mshr miss rate for demand accesses
system.cache_small.overall_mshr_miss_rate::.cpu.inst     0.843645                       # mshr miss rate for overall accesses
system.cache_small.overall_mshr_miss_rate::.cpu.data     0.999819                       # mshr miss rate for overall accesses
system.cache_small.overall_mshr_miss_rate::total     0.998437                       # mshr miss rate for overall accesses
system.cache_small.demand_avg_mshr_miss_latency::.cpu.inst        57176                       # average overall mshr miss latency
system.cache_small.demand_avg_mshr_miss_latency::.cpu.data 56460.889139                       # average overall mshr miss latency
system.cache_small.demand_avg_mshr_miss_latency::total 56466.238455                       # average overall mshr miss latency
system.cache_small.overall_avg_mshr_miss_latency::.cpu.inst        57176                       # average overall mshr miss latency
system.cache_small.overall_avg_mshr_miss_latency::.cpu.data 56460.889139                       # average overall mshr miss latency
system.cache_small.overall_avg_mshr_miss_latency::total 56466.238455                       # average overall mshr miss latency
system.cache_small.replacements                 34726                       # number of replacements
system.cache_small.ReadReq_hits::.cpu.inst          139                       # number of ReadReq hits
system.cache_small.ReadReq_hits::.cpu.data           18                       # number of ReadReq hits
system.cache_small.ReadReq_hits::total            157                       # number of ReadReq hits
system.cache_small.ReadReq_misses::.cpu.inst          750                       # number of ReadReq misses
system.cache_small.ReadReq_misses::.cpu.data        99512                       # number of ReadReq misses
system.cache_small.ReadReq_misses::total       100262                       # number of ReadReq misses
system.cache_small.ReadReq_miss_latency::.cpu.inst     44382000                       # number of ReadReq miss cycles
system.cache_small.ReadReq_miss_latency::.cpu.data   5817560000                       # number of ReadReq miss cycles
system.cache_small.ReadReq_miss_latency::total   5861942000                       # number of ReadReq miss cycles
system.cache_small.ReadReq_accesses::.cpu.inst          889                       # number of ReadReq accesses(hits+misses)
system.cache_small.ReadReq_accesses::.cpu.data        99530                       # number of ReadReq accesses(hits+misses)
system.cache_small.ReadReq_accesses::total       100419                       # number of ReadReq accesses(hits+misses)
system.cache_small.ReadReq_miss_rate::.cpu.inst     0.843645                       # miss rate for ReadReq accesses
system.cache_small.ReadReq_miss_rate::.cpu.data     0.999819                       # miss rate for ReadReq accesses
system.cache_small.ReadReq_miss_rate::total     0.998437                       # miss rate for ReadReq accesses
system.cache_small.ReadReq_avg_miss_latency::.cpu.inst        59176                       # average ReadReq miss latency
system.cache_small.ReadReq_avg_miss_latency::.cpu.data 58460.889139                       # average ReadReq miss latency
system.cache_small.ReadReq_avg_miss_latency::total 58466.238455                       # average ReadReq miss latency
system.cache_small.ReadReq_mshr_misses::.cpu.inst          750                       # number of ReadReq MSHR misses
system.cache_small.ReadReq_mshr_misses::.cpu.data        99512                       # number of ReadReq MSHR misses
system.cache_small.ReadReq_mshr_misses::total       100262                       # number of ReadReq MSHR misses
system.cache_small.ReadReq_mshr_miss_latency::.cpu.inst     42882000                       # number of ReadReq MSHR miss cycles
system.cache_small.ReadReq_mshr_miss_latency::.cpu.data   5618536000                       # number of ReadReq MSHR miss cycles
system.cache_small.ReadReq_mshr_miss_latency::total   5661418000                       # number of ReadReq MSHR miss cycles
system.cache_small.ReadReq_mshr_miss_rate::.cpu.inst     0.843645                       # mshr miss rate for ReadReq accesses
system.cache_small.ReadReq_mshr_miss_rate::.cpu.data     0.999819                       # mshr miss rate for ReadReq accesses
system.cache_small.ReadReq_mshr_miss_rate::total     0.998437                       # mshr miss rate for ReadReq accesses
system.cache_small.ReadReq_avg_mshr_miss_latency::.cpu.inst        57176                       # average ReadReq mshr miss latency
system.cache_small.ReadReq_avg_mshr_miss_latency::.cpu.data 56460.889139                       # average ReadReq mshr miss latency
system.cache_small.ReadReq_avg_mshr_miss_latency::total 56466.238455                       # average ReadReq mshr miss latency
system.cache_small.WritebackDirty_hits::.writebacks        98940                       # number of WritebackDirty hits
system.cache_small.WritebackDirty_hits::total        98940                       # number of WritebackDirty hits
system.cache_small.WritebackDirty_accesses::.writebacks        98940                       # number of WritebackDirty accesses(hits+misses)
system.cache_small.WritebackDirty_accesses::total        98940                       # number of WritebackDirty accesses(hits+misses)
system.cache_small.power_state.pwrStateResidencyTicks::UNDEFINED  12065580000                       # Cumulative time (in ticks) in various power states
system.cache_small.tags.tagsinuse        43998.485881                       # Cycle average of tags in use
system.cache_small.tags.total_refs              68799                       # Total number of references to valid blocks.
system.cache_small.tags.sampled_refs            34726                       # Sample count of references to valid blocks.
system.cache_small.tags.avg_refs             1.981196                       # Average number of references to valid blocks.
system.cache_small.tags.warmup_cycle            76000                       # Cycle when the warmup percentage was hit.
system.cache_small.tags.occ_blocks::.cpu.inst   395.092302                       # Average occupied blocks per requestor
system.cache_small.tags.occ_blocks::.cpu.data 43603.393579                       # Average occupied blocks per requestor
system.cache_small.tags.occ_percent::.cpu.inst     0.006029                       # Average percentage of cache occupancy
system.cache_small.tags.occ_percent::.cpu.data     0.665335                       # Average percentage of cache occupancy
system.cache_small.tags.occ_percent::total     0.671364                       # Average percentage of cache occupancy
system.cache_small.tags.occ_task_id_blocks::1024        65536                       # Occupied blocks per task id
system.cache_small.tags.age_task_id_blocks_1024::0           81                       # Occupied blocks per task id
system.cache_small.tags.age_task_id_blocks_1024::1          727                       # Occupied blocks per task id
system.cache_small.tags.age_task_id_blocks_1024::2         7279                       # Occupied blocks per task id
system.cache_small.tags.age_task_id_blocks_1024::3        57449                       # Occupied blocks per task id
system.cache_small.tags.occ_task_id_percent::1024            1                       # Percentage of cache occupancy per task id
system.cache_small.tags.tag_accesses           299621                       # Number of tag accesses
system.cache_small.tags.data_accesses          299621                       # Number of data accesses
system.cache_small.tags.power_state.pwrStateResidencyTicks::UNDEFINED  12065580000                       # Cumulative time (in ticks) in various power states
system.icache.demand_hits::.cpu.inst          1533526                       # number of demand (read+write) hits
system.icache.demand_hits::total              1533526                       # number of demand (read+write) hits
system.icache.overall_hits::.cpu.inst         1533526                       # number of overall hits
system.icache.overall_hits::total             1533526                       # number of overall hits
system.icache.demand_misses::.cpu.inst            959                       # number of demand (read+write) misses
system.icache.demand_misses::total                959                       # number of demand (read+write) misses
system.icache.overall_misses::.cpu.inst           959                       # number of overall misses
system.icache.overall_misses::total               959                       # number of overall misses
system.icache.demand_miss_latency::.cpu.inst     60855000                       # number of demand (read+write) miss cycles
system.icache.demand_miss_latency::total     60855000                       # number of demand (read+write) miss cycles
system.icache.overall_miss_latency::.cpu.inst     60855000                       # number of overall miss cycles
system.icache.overall_miss_latency::total     60855000                       # number of overall miss cycles
system.icache.demand_accesses::.cpu.inst      1534485                       # number of demand (read+write) accesses
system.icache.demand_accesses::total          1534485                       # number of demand (read+write) accesses
system.icache.overall_accesses::.cpu.inst      1534485                       # number of overall (read+write) accesses
system.icache.overall_accesses::total         1534485                       # number of overall (read+write) accesses
system.icache.demand_miss_rate::.cpu.inst     0.000625                       # miss rate for demand accesses
system.icache.demand_miss_rate::total        0.000625                       # miss rate for demand accesses
system.icache.overall_miss_rate::.cpu.inst     0.000625                       # miss rate for overall accesses
system.icache.overall_miss_rate::total       0.000625                       # miss rate for overall accesses
system.icache.demand_avg_miss_latency::.cpu.inst 63456.725756                       # average overall miss latency
system.icache.demand_avg_miss_latency::total 63456.725756                       # average overall miss latency
system.icache.overall_avg_miss_latency::.cpu.inst 63456.725756                       # average overall miss latency
system.icache.overall_avg_miss_latency::total 63456.725756                       # average overall miss latency
system.icache.blocked_cycles::no_mshrs              0                       # number of cycles access was blocked
system.icache.blocked_cycles::no_targets            0                       # number of cycles access was blocked
system.icache.blocked::no_mshrs                     0                       # number of cycles access was blocked
system.icache.blocked::no_targets                   0                       # number of cycles access was blocked
system.icache.avg_blocked_cycles::no_mshrs          nan                       # average number of cycles each access was blocked
system.icache.avg_blocked_cycles::no_targets          nan                       # average number of cycles each access was blocked
system.icache.demand_mshr_misses::.cpu.inst          959                       # number of demand (read+write) MSHR misses
system.icache.demand_mshr_misses::total           959                       # number of demand (read+write) MSHR misses
system.icache.overall_mshr_misses::.cpu.inst          959                       # number of overall MSHR misses
system.icache.overall_mshr_misses::total          959                       # number of overall MSHR misses
system.icache.demand_mshr_miss_latency::.cpu.inst     58937000                       # number of demand (read+write) MSHR miss cycles
system.icache.demand_mshr_miss_latency::total     58937000                       # number of demand (read+write) MSHR miss cycles
system.icache.overall_mshr_miss_latency::.cpu.inst     58937000                       # number of overall MSHR miss cycles
system.icache.overall_mshr_miss_latency::total     58937000                       # number of overall MSHR miss cycles
system.icache.demand_mshr_miss_rate::.cpu.inst     0.000625                       # mshr miss rate for demand accesses
system.icache.demand_mshr_miss_rate::total     0.000625                       # mshr miss rate for demand accesses
system.icache.overall_mshr_miss_rate::.cpu.inst     0.000625                       # mshr miss rate for overall accesses
system.icache.overall_mshr_miss_rate::total     0.000625                       # mshr miss rate for overall accesses
system.icache.demand_avg_mshr_miss_latency::.cpu.inst 61456.725756                       # average overall mshr miss latency
system.icache.demand_avg_mshr_miss_latency::total 61456.725756                       # average overall mshr miss latency
system.icache.overall_avg_mshr_miss_latency::.cpu.inst 61456.725756                       # average overall mshr miss latency
system.icache.overall_avg_mshr_miss_latency::total 61456.725756                       # average overall mshr miss latency
system.icache.replacements                        712                       # number of replacements
system.icache.ReadReq_hits::.cpu.inst         1533526                       # number of ReadReq hits
system.icache.ReadReq_hits::total             1533526                       # number of ReadReq hits
system.icache.ReadReq_misses::.cpu.inst           959                       # number of ReadReq misses
system.icache.ReadReq_misses::total               959                       # number of ReadReq misses
system.icache.ReadReq_miss_latency::.cpu.inst     60855000                       # number of ReadReq miss cycles
system.icache.ReadReq_miss_latency::total     60855000                       # number of ReadReq miss cycles
system.icache.ReadReq_accesses::.cpu.inst      1534485                       # number of ReadReq accesses(hits+misses)
system.icache.ReadReq_accesses::total         1534485                       # number of ReadReq accesses(hits+misses)
system.icache.ReadReq_miss_rate::.cpu.inst     0.000625                       # miss rate for ReadReq accesses
system.icache.ReadReq_miss_rate::total       0.000625                       # miss rate for ReadReq accesses
system.icache.ReadReq_avg_miss_latency::.cpu.inst 63456.725756                       # average ReadReq miss latency
system.icache.ReadReq_avg_miss_latency::total 63456.725756                       # average ReadReq miss latency
system.icache.ReadReq_mshr_misses::.cpu.inst          959                       # number of ReadReq MSHR misses
system.icache.ReadReq_mshr_misses::total          959                       # number of ReadReq MSHR misses
system.icache.ReadReq_mshr_miss_latency::.cpu.inst     58937000                       # number of ReadReq MSHR miss cycles
system.icache.ReadReq_mshr_miss_latency::total     58937000                       # number of ReadReq MSHR miss cycles
system.icache.ReadReq_mshr_miss_rate::.cpu.inst     0.000625                       # mshr miss rate for ReadReq accesses
system.icache.ReadReq_mshr_miss_rate::total     0.000625                       # mshr miss rate for ReadReq accesses
system.icache.ReadReq_avg_mshr_miss_latency::.cpu.inst 61456.725756                       # average ReadReq mshr miss latency
system.icache.ReadReq_avg_mshr_miss_latency::total 61456.725756                       # average ReadReq mshr miss latency
system.icache.power_state.pwrStateResidencyTicks::UNDEFINED  12065580000                       # Cumulative time (in ticks) in various power states
system.icache.tags.tagsinuse               245.938087                       # Cycle average of tags in use
system.icache.tags.total_refs                   43510                       # Total number of references to valid blocks.
system.icache.tags.sampled_refs                   712                       # Sample count of references to valid blocks.
system.icache.tags.avg_refs                 61.109551                       # Average number of references to valid blocks.
system.icache.tags.warmup_cycle                 82000                       # Cycle when the warmup percentage was hit.
system.icache.tags.occ_blocks::.cpu.inst   245.938087                       # Average occupied blocks per requestor
system.icache.tags.occ_percent::.cpu.inst     0.960696                       # Average percentage of cache occupancy
system.icache.tags.occ_percent::total        0.960696                       # Average percentage of cache occupancy
system.icache.tags.occ_task_id_blocks::1024          247                       # Occupied blocks per task id
system.icache.tags.age_task_id_blocks_1024::4          247                       # Occupied blocks per task id
system.icache.tags.occ_task_id_percent::1024     0.964844                       # Percentage of cache occupancy per task id
system.icache.tags.tag_accesses               1535444                       # Number of tag accesses
system.icache.tags.data_accesses              1535444                       # Number of data accesses
system.icache.tags.power_state.pwrStateResidencyTicks::UNDEFINED  12065580000                       # Cumulative time (in ticks) in various power states
system.membus.trans_dist::ReadReq              100262                       # Transaction distribution
system.membus.trans_dist::ReadResp             100262                       # Transaction distribution
system.membus.trans_dist::WritebackDirty        33884                       # Transaction distribution
system.membus.pkt_count_system.cache_small.mem_side::system.mem_ctrl.port       234408                       # Packet count per connected master and slave (bytes)
system.membus.pkt_count_system.cache_small.mem_side::total       234408                       # Packet count per connected master and slave (bytes)
system.membus.pkt_count::total                 234408                       # Packet count per connected master and slave (bytes)
system.membus.pkt_size_system.cache_small.mem_side::system.mem_ctrl.port      8585344                       # Cumulative packet size per connected master and slave (bytes)
system.membus.pkt_size_system.cache_small.mem_side::total      8585344                       # Cumulative packet size per connected master and slave (bytes)
system.membus.pkt_size::total                 8585344                       # Cumulative packet size per connected master and slave (bytes)
system.membus.reqLayer2.occupancy           269682000                       # Layer occupancy (ticks)
system.membus.reqLayer2.utilization               2.2                       # Layer utilization (%)
system.membus.respLayer1.occupancy          528062000                       # Layer occupancy (ticks)
system.membus.respLayer1.utilization              4.4                       # Layer utilization (%)
system.membus.power_state.pwrStateResidencyTicks::UNDEFINED  12065580000                       # Cumulative time (in ticks) in various power states
system.mem_ctrl.bytes_read::.cpu.inst           48000                       # Number of bytes read from this memory
system.mem_ctrl.bytes_read::.cpu.data         6368768                       # Number of bytes read from this memory
system.mem_ctrl.bytes_read::total             6416768                       # Number of bytes read from this memory
system.mem_ctrl.bytes_inst_read::.cpu.inst        48000                       # Number of instructions bytes read from this memory
system.mem_ctrl.bytes_inst_read::total          48000                       # Number of instructions bytes read from this memory
system.mem_ctrl.bytes_written::.writebacks      2168576                       # Number of bytes written to this memory
system.mem_ctrl.bytes_written::total          2168576                       # Number of bytes written to this memory
system.mem_ctrl.num_reads::.cpu.inst              750                       # Number of read requests responded to by this memory
system.mem_ctrl.num_reads::.cpu.data            99512                       # Number of read requests responded to by this memory
system.mem_ctrl.num_reads::total               100262                       # Number of read requests responded to by this memory
system.mem_ctrl.num_writes::.writebacks         33884                       # Number of write requests responded to by this memory
system.mem_ctrl.num_writes::total               33884                       # Number of write requests responded to by this memory
system.mem_ctrl.bw_read::.cpu.inst            3978259                       # Total read bandwidth from this memory (bytes/s)
system.mem_ctrl.bw_read::.cpu.data          527845988                       # Total read bandwidth from this memory (bytes/s)
system.mem_ctrl.bw_read::total              531824247                       # Total read bandwidth from this memory (bytes/s)
system.mem_ctrl.bw_inst_read::.cpu.inst       3978259                       # Instruction read bandwidth from this memory (bytes/s)
system.mem_ctrl.bw_inst_read::total           3978259                       # Instruction read bandwidth from this memory (bytes/s)
system.mem_ctrl.bw_write::.writebacks       179732429                       # Write bandwidth from this memory (bytes/s)
system.mem_ctrl.bw_write::total             179732429                       # Write bandwidth from this memory (bytes/s)
system.mem_ctrl.bw_total::.writebacks       179732429                       # Total bandwidth to/from this memory (bytes/s)
system.mem_ctrl.bw_total::.cpu.inst           3978259                       # Total bandwidth to/from this memory (bytes/s)
system.mem_ctrl.bw_total::.cpu.data         527845988                       # Total bandwidth to/from this memory (bytes/s)
system.mem_ctrl.bw_total::total             711556676                       # Total bandwidth to/from this memory (bytes/s)
system.mem_ctrl.avgPriority_.writebacks::samples     33884.00                       # Average QoS priority value for accepted requests
system.mem_ctrl.avgPriority_.cpu.inst::samples       750.00                       # Average QoS priority value for accepted requests
system.mem_ctrl.avgPriority_.cpu.data::samples     99512.00                       # Average QoS priority value for accepted requests
system.mem_ctrl.priorityMinLatency       0.000000018750                       # per QoS priority minimum request to response latency (s)
system.mem_ctrl.priorityMaxLatency       0.000118516500                       # per QoS priority maximum request to response latency (s)
system.mem_ctrl.numReadWriteTurnArounds          1988                       # Number of turnarounds from READ to WRITE
system.mem_ctrl.numWriteReadTurnArounds          1988                       # Number of turnarounds from WRITE to READ
system.mem_ctrl.numStayReadState               235742                       # Number of times bus staying in READ state
system.mem_ctrl.numStayWriteState               31896                       # Number of times bus staying in WRITE state
system.mem_ctrl.readReqs                       100262                       # Number of read requests accepted
system.mem_ctrl.writeReqs                       33884                       # Number of write requests accepted
system.mem_ctrl.readBursts                     100262                       # Number of DRAM read bursts, including those serviced by the write queue
system.mem_ctrl.writeBursts                     33884                       # Number of DRAM write bursts, including those merged in the write queue
system.mem_ctrl.servicedByWrQ                       0                       # Number of DRAM read bursts serviced by the write queue
system.mem_ctrl.mergedWrBursts                      0                       # Number of DRAM write bursts merged with an existing one
system.mem_ctrl.neitherReadNorWriteReqs             0                       # Number of requests that are neither read nor write
system.mem_ctrl.perBankRdBursts::0               6381                       # Per bank write bursts
system.mem_ctrl.perBankRdBursts::1               6229                       # Per bank write bursts
system.mem_ctrl.perBankRdBursts::2               6234                       # Per bank write bursts
system.mem_ctrl.perBankRdBursts::3               6218                       # Per bank write bursts
system.mem_ctrl.perBankRdBursts::4               6348                       # Per bank write bursts
system.mem_ctrl.perBankRdBursts::5               6213                       # Per bank write bursts
system.mem_ctrl.perBankRdBursts::6               6194                       # Per bank write bursts
system.mem_ctrl.perBankRdBursts::7               6207                       # Per bank write bursts
system.mem_ctrl.perBankRdBursts::8               6213                       # Per bank write bursts
system.mem_ctrl.perBankRdBursts::9               6212                       # Per bank write bursts
system.mem_ctrl.perBankRdBursts::10              6245                       # Per bank write bursts
system.mem_ctrl.perBankRdBursts::11              6295                       # Per bank write bursts
system.mem_ctrl.perBankRdBursts::12              6276                       # Per bank write bursts
system.mem_ctrl.perBankRdBursts::13              6294                       # Per bank write bursts
system.mem_ctrl.perBankRdBursts::14              6395                       # Per bank write bursts
system.mem_ctrl.perBankRdBursts::15              6308                       # Per bank write bursts
system.mem_ctrl.perBankWrBursts::0               2136                       # Per bank write bursts
system.mem_ctrl.perBankWrBursts::1               2066                       # Per bank write bursts
system.mem_ctrl.perBankWrBursts::2               2088                       # Per bank write bursts
system.mem_ctrl.perBankWrBursts::3               2058                       # Per bank write bursts
system.mem_ctrl.perBankWrBursts::4               2111                       # Per bank write bursts
system.mem_ctrl.perBankWrBursts::5               2065                       # Per bank write bursts
system.mem_ctrl.perBankWrBursts::6               2066                       # Per bank write bursts
system.mem_ctrl.perBankWrBursts::7               2048                       # Per bank write bursts
system.mem_ctrl.perBankWrBursts::8               2048                       # Per bank write bursts
system.mem_ctrl.perBankWrBursts::9               2115                       # Per bank write bursts
system.mem_ctrl.perBankWrBursts::10              2113                       # Per bank write bursts
system.mem_ctrl.perBankWrBursts::11              2176                       # Per bank write bursts
system.mem_ctrl.perBankWrBursts::12              2176                       # Per bank write bursts
system.mem_ctrl.perBankWrBursts::13              2178                       # Per bank write bursts
system.mem_ctrl.perBankWrBursts::14              2238                       # Per bank write bursts
system.mem_ctrl.perBankWrBursts::15              2176                       # Per bank write bursts
system.mem_ctrl.avgRdQLen                        1.00                       # Average read queue length when enqueuing
system.mem_ctrl.avgWrQLen                        9.19                       # Average write queue length when enqueuing
system.mem_ctrl.totQLat                     646631500                       # Total ticks spent queuing
system.mem_ctrl.totBusLat                   501310000                       # Total ticks spent in databus transfers
system.mem_ctrl.totMemAccLat               2526544000                       # Total ticks spent from burst creation until serviced by the DRAM
system.mem_ctrl.avgQLat                       6449.42                       # Average queueing delay per DRAM burst
system.mem_ctrl.avgBusLat                     5000.00                       # Average bus latency per DRAM burst
system.mem_ctrl.avgMemAccLat                 25199.42                       # Average memory access latency per DRAM burst
system.mem_ctrl.numRdRetry                          0                       # Number of times read queue was full causing retry
system.mem_ctrl.numWrRetry                          0                       # Number of times write queue was full causing retry
system.mem_ctrl.readRowHits                     91383                       # Number of row buffer hits during reads
system.mem_ctrl.writeRowHits                    30550                       # Number of row buffer hits during writes
system.mem_ctrl.readRowHitRate                  91.14                       # Row buffer hit rate for reads
system.mem_ctrl.writeRowHitRate                 90.16                       # Row buffer hit rate for writes
system.mem_ctrl.readPktSize::0                      0                       # Read request sizes (log2)
system.mem_ctrl.readPktSize::1                      0                       # Read request sizes (log2)
system.mem_ctrl.readPktSize::2                      0                       # Read request sizes (log2)
system.mem_ctrl.readPktSize::3                      0                       # Read request sizes (log2)
system.mem_ctrl.readPktSize::4                      0                       # Read request sizes (log2)
system.mem_ctrl.readPktSize::5                      0                       # Read request sizes (log2)
system.mem_ctrl.readPktSize::6                 100262                       # Read request sizes (log2)
system.mem_ctrl.writePktSize::0                     0                       # Write request sizes (log2)
system.mem_ctrl.writePktSize::1                     0                       # Write request sizes (log2)
system.mem_ctrl.writePktSize::2                     0                       # Write request sizes (log2)
system.mem_ctrl.writePktSize::3                     0                       # Write request sizes (log2)
system.mem_ctrl.writePktSize::4                     0                       # Write request sizes (log2)
system.mem_ctrl.writePktSize::5                     0                       # Write request sizes (log2)
system.mem_ctrl.writePktSize::6                 33884                       # Write request sizes (log2)
system.mem_ctrl.rdQLenPdf::0                   100262                       # What read queue length does an incoming req see
system.mem_ctrl.rdQLenPdf::1                        0                       # What read queue length does an incoming req see
system.mem_ctrl.rdQLenPdf::2                        0                       # What read queue length does an incoming req see
system.mem_ctrl.rdQLenPdf::3                        0                       # What read queue length does an incoming req see
system.mem_ctrl.rdQLenPdf::4                        0                       # What read queue length does an incoming req see
system.mem_ctrl.rdQLenPdf::5                        0                       # What read queue length does an incoming req see
system.mem_ctrl.rdQLenPdf::6                        0                       # What read queue length does an incoming req see
system.mem_ctrl.rdQLenPdf::7                        0                       # What read queue length does an incoming req see
system.mem_ctrl.rdQLenPdf::8                        0                       # What read queue length does an incoming req see
system.mem_ctrl.rdQLenPdf::9                        0                       # What read queue length does an incoming req see
system.mem_ctrl.rdQLenPdf::10                       0                       # What read queue length does an incoming req see
system.mem_ctrl.rdQLenPdf::11                       0                       # What read queue length does an incoming req see
system.mem_ctrl.rdQLenPdf::12                       0                       # What read queue length does an incoming req see
system.mem_ctrl.rdQLenPdf::13                       0                       # What read queue length does an incoming req see
system.mem_ctrl.rdQLenPdf::14                       0                       # What read queue length does an incoming req see
system.mem_ctrl.rdQLenPdf::15                       0                       # What read queue length does an incoming req see
system.mem_ctrl.rdQLenPdf::16                       0                       # What read queue length does an incoming req see
system.mem_ctrl.rdQLenPdf::17                       0                       # What read queue length does an incoming req see
system.mem_ctrl.rdQLenPdf::18                       0                       # What read queue length does an incoming req see
system.mem_ctrl.rdQLenPdf::19                       0                       # What read queue length does an incoming req see
system.mem_ctrl.rdQLenPdf::20                       0                       # What read queue length does an incoming req see
system.mem_ctrl.rdQLenPdf::21                       0                       # What read queue length does an incoming req see
system.mem_ctrl.rdQLenPdf::22                       0                       # What read queue length does an incoming req see
system.mem_ctrl.rdQLenPdf::23                       0                       # What read queue length does an incoming req see
system.mem_ctrl.rdQLenPdf::24                       0                       # What read queue length does an incoming req see
system.mem_ctrl.rdQLenPdf::25                       0                       # What read queue length does an incoming req see
system.mem_ctrl.rdQLenPdf::26                       0                       # What read queue length does an incoming req see
system.mem_ctrl.rdQLenPdf::27                       0                       # What read queue length does an incoming req see
system.mem_ctrl.rdQLenPdf::28                       0                       # What read queue length does an incoming req see
system.mem_ctrl.rdQLenPdf::29                       0                       # What read queue length does an incoming req see
system.mem_ctrl.rdQLenPdf::30                       0                       # What read queue length does an incoming req see
system.mem_ctrl.rdQLenPdf::31                       0                       # What read queue length does an incoming req see
system.mem_ctrl.wrQLenPdf::0                        1                       # What write queue length does an incoming req see
system.mem_ctrl.wrQLenPdf::1                        1                       # What write queue length does an incoming req see
system.mem_ctrl.wrQLenPdf::2                        1                       # What write queue length does an incoming req see
system.mem_ctrl.wrQLenPdf::3                        1                       # What write queue length does an incoming req see
system.mem_ctrl.wrQLenPdf::4                        1                       # What write queue length does an incoming req see
system.mem_ctrl.wrQLenPdf::5                        1                       # What write queue length does an incoming req see
system.mem_ctrl.wrQLenPdf::6                        1                       # What write queue length does an incoming req see
system.mem_ctrl.wrQLenPdf::7                        1                       # What write queue length does an incoming req see
system.mem_ctrl.wrQLenPdf::8                        1                       # What write queue length does an incoming req see
system.mem_ctrl.wrQLenPdf::9                        1                       # What write queue length does an incoming req see
system.mem_ctrl.wrQLenPdf::10                       1                       # What write queue length does an incoming req see
system.mem_ctrl.wrQLenPdf::11                       1                       # What write queue length does an incoming req see
system.mem_ctrl.wrQLenPdf::12                       1                       # What write queue length does an incoming req see
system.mem_ctrl.wrQLenPdf::13                       1                       # What write queue length does an incoming req see
system.mem_ctrl.wrQLenPdf::14                       1                       # What write queue length does an incoming req see
system.mem_ctrl.wrQLenPdf::15                     811                       # What write queue length does an incoming req see
system.mem_ctrl.wrQLenPdf::16                    1232                       # What write queue length does an incoming req see
system.mem_ctrl.wrQLenPdf::17                    1989                       # What write queue length does an incoming req see
system.mem_ctrl.wrQLenPdf::18                    1989                       # What write queue length does an incoming req see
system.mem_ctrl.wrQLenPdf::19                    1989                       # What write queue length does an incoming req see
system.mem_ctrl.wrQLenPdf::20                    1989                       # What write queue length does an incoming req see
system.mem_ctrl.wrQLenPdf::21                    1989                       # What write queue length does an incoming req see
system.mem_ctrl.wrQLenPdf::22                    1989                       # What write queue length does an incoming req see
system.mem_ctrl.wrQLenPdf::23                    1989                       # What write queue length does an incoming req see
system.mem_ctrl.wrQLenPdf::24                    1989                       # What write queue length does an incoming req see
system.mem_ctrl.wrQLenPdf::25                    1989                       # What write queue length does an incoming req see
system.mem_ctrl.wrQLenPdf::26                    1988                       # What write queue length does an incoming req see
system.mem_ctrl.wrQLenPdf::27                    1997                       # What write queue length does an incoming req see
system.mem_ctrl.wrQLenPdf::28                    1988                       # What write queue length does an incoming req see
system.mem_ctrl.wrQLenPdf::29                    1988                       # What write queue length does an incoming req see
system.mem_ctrl.wrQLenPdf::30                    1988                       # What write queue length does an incoming req see
system.mem_ctrl.wrQLenPdf::31                    1988                       # What write queue length does an incoming req see
system.mem_ctrl.wrQLenPdf::32                    1988                       # What write queue length does an incoming req see
system.mem_ctrl.wrQLenPdf::33                       0                       # What write queue length does an incoming req see
system.mem_ctrl.wrQLenPdf::34                       0                       # What write queue length does an incoming req see
system.mem_ctrl.wrQLenPdf::35                       0                       # What write queue length does an incoming req see
system.mem_ctrl.wrQLenPdf::36                       0                       # What write queue length does an incoming req see
system.mem_ctrl.wrQLenPdf::37                       0                       # What write queue length does an incoming req see
system.mem_ctrl.wrQLenPdf::38                       0                       # What write queue length does an incoming req see
system.mem_ctrl.wrQLenPdf::39                       0                       # What write queue length does an incoming req see
system.mem_ctrl.wrQLenPdf::40                       0                       # What write queue length does an incoming req see
system.mem_ctrl.wrQLenPdf::41                       0                       # What write queue length does an incoming req see
system.mem_ctrl.wrQLenPdf::42                       0                       # What write queue length does an incoming req see
system.mem_ctrl.wrQLenPdf::43                       0                       # What write queue length does an incoming req see
system.mem_ctrl.wrQLenPdf::44                       0                       # What write queue length does an incoming req see
system.mem_ctrl.wrQLenPdf::45                       0                       # What write queue length does an incoming req see
system.mem_ctrl.wrQLenPdf::46                       0                       # What write queue length does an incoming req see
system.mem_ctrl.wrQLenPdf::47                       0                       # What write queue length does an incoming req see
system.mem_ctrl.wrQLenPdf::48                       0                       # What write queue length does an incoming req see
system.mem_ctrl.wrQLenPdf::49                       0                       # What write queue length does an incoming req see
system.mem_ctrl.wrQLenPdf::50                       0                       # What write queue length does an incoming req see
system.mem_ctrl.wrQLenPdf::51                       0                       # What write queue length does an incoming req see
system.mem_ctrl.wrQLenPdf::52                       0                       # What write queue length does an incoming req see
system.mem_ctrl.wrQLenPdf::53                       0                       # What write queue length does an incoming req see
system.mem_ctrl.wrQLenPdf::54                       0                       # What write queue length does an incoming req see
system.mem_ctrl.wrQLenPdf::55                       0                       # What write queue length does an incoming req see
system.mem_ctrl.wrQLenPdf::56                       0                       # What write queue length does an incoming req see
system.mem_ctrl.wrQLenPdf::57                       0                       # What write queue length does an incoming req see
system.mem_ctrl.wrQLenPdf::58                       0                       # What write queue length does an incoming req see
system.mem_ctrl.wrQLenPdf::59                       0                       # What write queue length does an incoming req see
system.mem_ctrl.wrQLenPdf::60                       0                       # What write queue length does an incoming req see
system.mem_ctrl.wrQLenPdf::61                       0                       # What write queue length does an incoming req see
system.mem_ctrl.wrQLenPdf::62                       0                       # What write queue length does an incoming req see
system.mem_ctrl.wrQLenPdf::63                       0                       # What write queue length does an incoming req see
system.mem_ctrl.bytesPerActivate::samples        12186                       # Bytes accessed per row activation
system.mem_ctrl.bytesPerActivate::mean     704.341375                       # Bytes accessed per row activation
system.mem_ctrl.bytesPerActivate::gmean    502.405762                       # Bytes accessed per row activation
system.mem_ctrl.bytesPerActivate::stdev    399.854626                       # Bytes accessed per row activation
system.mem_ctrl.bytesPerActivate::0-127          1109      9.10%      9.10% # Bytes accessed per row activation
system.mem_ctrl.bytesPerActivate::128-255         2159     17.72%     26.82% # Bytes accessed per row activation
system.mem_ctrl.bytesPerActivate::256-383          390      3.20%     30.02% # Bytes accessed per row activation
system.mem_ctrl.bytesPerActivate::384-511          404      3.32%     33.33% # Bytes accessed per row activation
system.mem_ctrl.bytesPerActivate::512-639          337      2.77%     36.10% # Bytes accessed per row activation
system.mem_ctrl.bytesPerActivate::640-767          381      3.13%     39.23% # Bytes accessed per row activation
system.mem_ctrl.bytesPerActivate::768-895          325      2.67%     41.89% # Bytes accessed per row activation
system.mem_ctrl.bytesPerActivate::896-1023          412      3.38%     45.27% # Bytes accessed per row activation
system.mem_ctrl.bytesPerActivate::1024-1151         6669     54.73%    100.00% # Bytes accessed per row activation
system.mem_ctrl.bytesPerActivate::total         12186                       # Bytes accessed per row activation
system.mem_ctrl.rdPerTurnAround::samples         1988                       # Reads before turning the bus around for writes
system.mem_ctrl.rdPerTurnAround::mean       50.429074                       # Reads before turning the bus around for writes
system.mem_ctrl.rdPerTurnAround::gmean      17.242491                       # Reads before turning the bus around for writes
system.mem_ctrl.rdPerTurnAround::stdev    1460.572393                       # Reads before turning the bus around for writes
system.mem_ctrl.rdPerTurnAround::0-2047          1987     99.95%     99.95% # Reads before turning the bus around for writes
system.mem_ctrl.rdPerTurnAround::63488-65535            1      0.05%    100.00% # Reads before turning the bus around for writes
system.mem_ctrl.rdPerTurnAround::total           1988                       # Reads before turning the bus around for writes
system.mem_ctrl.wrPerTurnAround::samples         1988                       # Writes before turning the bus around for reads
system.mem_ctrl.wrPerTurnAround::mean       17.031187                       # Writes before turning the bus around for reads
system.mem_ctrl.wrPerTurnAround::gmean      17.007868                       # Writes before turning the bus around for reads
system.mem_ctrl.wrPerTurnAround::stdev       0.890046                       # Writes before turning the bus around for reads
system.mem_ctrl.wrPerTurnAround::16               757     38.08%     38.08% # Writes before turning the bus around for reads
system.mem_ctrl.wrPerTurnAround::17               412     20.72%     58.80% # Writes before turning the bus around for reads
system.mem_ctrl.wrPerTurnAround::18               819     41.20%    100.00% # Writes before turning the bus around for reads
system.mem_ctrl.wrPerTurnAround::total           1988                       # Writes before turning the bus around for reads
system.mem_ctrl.bytesReadDRAM                 6416768                       # Total number of bytes read from DRAM
system.mem_ctrl.bytesReadWrQ                        0                       # Total number of bytes read from write queue
system.mem_ctrl.bytesWritten                  2166912                       # Total number of bytes written to DRAM
system.mem_ctrl.bytesReadSys                  6416768                       # Total read bytes from the system interface side
system.mem_ctrl.bytesWrittenSys               2168576                       # Total written bytes from the system interface side
system.mem_ctrl.avgRdBW                        531.82                       # Average DRAM read bandwidth in MiByte/s
system.mem_ctrl.avgWrBW                        179.59                       # Average achieved write bandwidth in MiByte/s
system.mem_ctrl.avgRdBWSys                     531.82                       # Average system read bandwidth in MiByte/s
system.mem_ctrl.avgWrBWSys                     179.73                       # Average system write bandwidth in MiByte/s
system.mem_ctrl.peakBW                       12800.00                       # Theoretical peak bandwidth in MiByte/s
system.mem_ctrl.busUtil                          5.56                       # Data bus utilization in percentage
system.mem_ctrl.busUtilRead                      4.15                       # Data bus utilization in percentage for reads
system.mem_ctrl.busUtilWrite                     1.40                       # Data bus utilization in percentage for writes
system.mem_ctrl.totGap                    12065538000                       # Total gap between requests
system.mem_ctrl.avgGap                       89943.33                       # Average gap between requests
system.mem_ctrl.masterReadBytes::.cpu.inst        48000                       # Per-master bytes read from memory
system.mem_ctrl.masterReadBytes::.cpu.data      6368768                       # Per-master bytes read from memory
system.mem_ctrl.masterWriteBytes::.writebacks      2166912                       # Per-master bytes write to memory
system.mem_ctrl.masterReadRate::.cpu.inst 3978258.815572894178                       # Per-master bytes read from memory rate (Bytes/sec)
system.mem_ctrl.masterReadRate::.cpu.data 527845988.340386509895                       # Per-master bytes read from memory rate (Bytes/sec)
system.mem_ctrl.masterWriteRate::.writebacks 179594515.970222741365                       # Per-master bytes write to memory rate (Bytes/sec)
system.mem_ctrl.masterReadAccesses::.cpu.inst          750                       # Per-master read serviced memory accesses
system.mem_ctrl.masterReadAccesses::.cpu.data        99512                       # Per-master read serviced memory accesses
system.mem_ctrl.masterWriteAccesses::.writebacks        33884                       # Per-master write serviced memory accesses
system.mem_ctrl.masterReadTotalLat::.cpu.inst     19377500                       # Per-master read total memory access latency
system.mem_ctrl.masterReadTotalLat::.cpu.data   2507166500                       # Per-master read total memory access latency
system.mem_ctrl.masterWriteTotalLat::.writebacks 105383901000                       # Per-master write total memory access latency
system.mem_ctrl.masterReadAvgLat::.cpu.inst     25836.67                       # Per-master read average memory access latency
system.mem_ctrl.masterReadAvgLat::.cpu.data     25194.61                       # Per-master read average memory access latency
system.mem_ctrl.masterWriteAvgLat::.writebacks   3110137.56                       # Per-master write average memory access latency
system.mem_ctrl.pageHitRate                     90.90                       # Row buffer hit rate, read and write combined
system.mem_ctrl.rank1.actEnergy              43561140                       # Energy for activate commands per rank (pJ)
system.mem_ctrl.rank1.preEnergy              23153295                       # Energy for precharge commands per rank (pJ)
system.mem_ctrl.rank1.readEnergy            358699320                       # Energy for read commands per rank (pJ)
system.mem_ctrl.rank1.writeEnergy            89888400                       # Energy for write commands per rank (pJ)
system.mem_ctrl.rank1.refreshEnergy      952077360.000000                       # Energy for refresh commands per rank (pJ)
system.mem_ctrl.rank1.actBackEnergy        2852600340                       # Energy for active background per rank (pJ)
system.mem_ctrl.rank1.preBackEnergy        2230992960                       # Energy for precharge background per rank (pJ)
system.mem_ctrl.rank1.actPowerDownEnergy            0                       # Energy for active power-down per rank (pJ)
system.mem_ctrl.rank1.prePowerDownEnergy            0                       # Energy for precharge power-down per rank (pJ)
system.mem_ctrl.rank1.selfRefreshEnergy             0                       # Energy for self refresh per rank (pJ)
system.mem_ctrl.rank1.totalEnergy          6550972815                       # Total energy per rank (pJ)
system.mem_ctrl.rank1.averagePower         542.947195                       # Core power per rank (mW)
system.mem_ctrl.rank1.totalIdleTime                 0                       # Total Idle time Per DRAM Rank
system.mem_ctrl.rank1.memoryStateTime::IDLE   5729544750                       # Time in different power states
system.mem_ctrl.rank1.memoryStateTime::REF    402740000                       # Time in different power states
system.mem_ctrl.rank1.memoryStateTime::SREF            0                       # Time in different power states
system.mem_ctrl.rank1.memoryStateTime::PRE_PDN            0                       # Time in different power states
system.mem_ctrl.rank1.memoryStateTime::ACT   5933295250                       # Time in different power states
system.mem_ctrl.rank1.memoryStateTime::ACT_PDN            0                       # Time in different power states
system.mem_ctrl.rank0.actEnergy              43454040                       # Energy for activate commands per rank (pJ)
system.mem_ctrl.rank0.preEnergy              23092575                       # Energy for precharge commands per rank (pJ)
system.mem_ctrl.rank0.readEnergy            357171360                       # Energy for read commands per rank (pJ)
system.mem_ctrl.rank0.writeEnergy            86850360                       # Energy for write commands per rank (pJ)
system.mem_ctrl.rank0.refreshEnergy      952077360.000000                       # Energy for refresh commands per rank (pJ)
system.mem_ctrl.rank0.actBackEnergy        2831117040                       # Energy for active background per rank (pJ)
system.mem_ctrl.rank0.preBackEnergy        2249084160                       # Energy for precharge background per rank (pJ)
system.mem_ctrl.rank0.actPowerDownEnergy            0                       # Energy for active power-down per rank (pJ)
system.mem_ctrl.rank0.prePowerDownEnergy            0                       # Energy for precharge power-down per rank (pJ)
system.mem_ctrl.rank0.selfRefreshEnergy             0                       # Energy for self refresh per rank (pJ)
system.mem_ctrl.rank0.totalEnergy          6542846895                       # Total energy per rank (pJ)
system.mem_ctrl.rank0.averagePower         542.273715                       # Core power per rank (mW)
system.mem_ctrl.rank0.totalIdleTime                 0                       # Total Idle time Per DRAM Rank
system.mem_ctrl.rank0.memoryStateTime::IDLE   5777442250                       # Time in different power states
system.mem_ctrl.rank0.memoryStateTime::REF    402740000                       # Time in different power states
system.mem_ctrl.rank0.memoryStateTime::SREF            0                       # Time in different power states
system.mem_ctrl.rank0.memoryStateTime::PRE_PDN            0                       # Time in different power states
system.mem_ctrl.rank0.memoryStateTime::ACT   5885397750                       # Time in different power states
system.mem_ctrl.rank0.memoryStateTime::ACT_PDN            0                       # Time in different power states
system.mem_ctrl.power_state.pwrStateResidencyTicks::UNDEFINED  12065580000                       # Cumulative time (in ticks) in various power states
system.cache_medium.blocked_cycles::no_mshrs            0                       # number of cycles access was blocked
system.cache_medium.blocked_cycles::no_targets            0                       # number of cycles access was blocked
system.cache_medium.blocked::no_mshrs               0                       # number of cycles access was blocked
system.cache_medium.blocked::no_targets             0                       # number of cycles access was blocked
system.cache_medium.avg_blocked_cycles::no_mshrs          nan                       # average number of cycles each access was blocked
system.cache_medium.avg_blocked_cycles::no_targets          nan                       # average number of cycles each access was blocked
system.cache_medium.replacements                    0                       # number of replacements
system.cache_medium.power_state.pwrStateResidencyTicks::UNDEFINED  12065580000                       # Cumulative time (in ticks) in various power states
system.cache_medium.tags.tagsinuse                  0                       # Cycle average of tags in use
system.cache_medium.tags.total_refs                 0                       # Total number of references to valid blocks.
system.cache_medium.tags.sampled_refs               0                       # Sample count of references to valid blocks.
system.cache_medium.tags.avg_refs                 nan                       # Average number of references to valid blocks.
system.cache_medium.tags.warmup_cycle               0                       # Cycle when the warmup percentage was hit.
system.cache_medium.tags.tag_accesses               0                       # Number of tag accesses
system.cache_medium.tags.data_accesses              0                       # Number of data accesses
system.cache_medium.tags.power_state.pwrStateResidencyTicks::UNDEFINED  12065580000                       # Cumulative time (in ticks) in various power states
system.clk_domain.clock                          1000                       # Clock period in ticks
system.clk_domain.voltage_domain.voltage            1                       # Voltage in Volts
system.dcache.demand_hits::.cpu.data           711918                       # number of demand (read+write) hits
system.dcache.demand_hits::total               711918                       # number of demand (read+write) hits
system.dcache.overall_hits::.cpu.data          711918                       # number of overall hits
system.dcache.overall_hits::total              711918                       # number of overall hits
system.dcache.demand_misses::.cpu.data          99658                       # number of demand (read+write) misses
system.dcache.demand_misses::total              99658                       # number of demand (read+write) misses
system.dcache.overall_misses::.cpu.data         99658                       # number of overall misses
system.dcache.overall_misses::total             99658                       # number of overall misses
system.dcache.demand_miss_latency::.cpu.data   7511518000                       # number of demand (read+write) miss cycles
system.dcache.demand_miss_latency::total   7511518000                       # number of demand (read+write) miss cycles
system.dcache.overall_miss_latency::.cpu.data   7511518000                       # number of overall miss cycles
system.dcache.overall_miss_latency::total   7511518000                       # number of overall miss cycles
system.dcache.demand_accesses::.cpu.data       811576                       # number of demand (read+write) accesses
system.dcache.demand_accesses::total           811576                       # number of demand (read+write) accesses
system.dcache.overall_accesses::.cpu.data       811576                       # number of overall (read+write) accesses
system.dcache.overall_accesses::total          811576                       # number of overall (read+write) accesses
system.dcache.demand_miss_rate::.cpu.data     0.122796                       # miss rate for demand accesses
system.dcache.demand_miss_rate::total        0.122796                       # miss rate for demand accesses
system.dcache.overall_miss_rate::.cpu.data     0.122796                       # miss rate for overall accesses
system.dcache.overall_miss_rate::total       0.122796                       # miss rate for overall accesses
system.dcache.demand_avg_miss_latency::.cpu.data 75372.955508                       # average overall miss latency
system.dcache.demand_avg_miss_latency::total 75372.955508                       # average overall miss latency
system.dcache.overall_avg_miss_latency::.cpu.data 75372.955508                       # average overall miss latency
system.dcache.overall_avg_miss_latency::total 75372.955508                       # average overall miss latency
system.dcache.blocked_cycles::no_mshrs              0                       # number of cycles access was blocked
system.dcache.blocked_cycles::no_targets            0                       # number of cycles access was blocked
system.dcache.blocked::no_mshrs                     0                       # number of cycles access was blocked
system.dcache.blocked::no_targets                   0                       # number of cycles access was blocked
system.dcache.avg_blocked_cycles::no_mshrs          nan                       # average number of cycles each access was blocked
system.dcache.avg_blocked_cycles::no_targets          nan                       # average number of cycles each access was blocked
system.dcache.writebacks::.writebacks           99229                       # number of writebacks
system.dcache.writebacks::total                 99229                       # number of writebacks
system.dcache.demand_mshr_misses::.cpu.data        99658                       # number of demand (read+write) MSHR misses
system.dcache.demand_mshr_misses::total         99658                       # number of demand (read+write) MSHR misses
system.dcache.overall_mshr_misses::.cpu.data        99658                       # number of overall MSHR misses
system.dcache.overall_mshr_misses::total        99658                       # number of overall MSHR misses
system.dcache.demand_mshr_miss_latency::.cpu.data   7312204000                       # number of demand (read+write) MSHR miss cycles
system.dcache.demand_mshr_miss_latency::total   7312204000                       # number of demand (read+write) MSHR miss cycles
system.dcache.overall_mshr_miss_latency::.cpu.data   7312204000                       # number of overall MSHR miss cycles
system.dcache.overall_mshr_miss_latency::total   7312204000                       # number of overall MSHR miss cycles
system.dcache.demand_mshr_miss_rate::.cpu.data     0.122796                       # mshr miss rate for demand accesses
system.dcache.demand_mshr_miss_rate::total     0.122796                       # mshr miss rate for demand accesses
system.dcache.overall_mshr_miss_rate::.cpu.data     0.122796                       # mshr miss rate for overall accesses
[...]
system.dcache.tags.occ_percent::total        0.998701                       # Average percentage of cache occupancy
system.dcache.tags.occ_task_id_blocks::1024          256                       # Occupied blocks per task id
system.dcache.tags.age_task_id_blocks_1024::0           83                       # Occupied blocks per task id
system.dcache.tags.age_task_id_blocks_1024::1          173                       # Occupied blocks per task id
system.dcache.tags.occ_task_id_percent::1024            1                       # Percentage of cache occupancy per task id
system.dcache.tags.tag_accesses               6536232                       # Number of tag accesses
system.dcache.tags.data_accesses              6536232                       # Number of data accesses
system.dcache.tags.power_state.pwrStateResidencyTicks::UNDEFINED  89370526000                       # Cumulative time (in ticks) in various power states
system.cache_large.blocked_cycles::no_mshrs            0                       # number of cycles access was blocked
system.cache_large.blocked_cycles::no_targets            0                       # number of cycles access was blocked
system.cache_large.blocked::no_mshrs                0                       # number of cycles access was blocked
system.cache_large.blocked::no_targets              0                       # number of cycles access was blocked
system.cache_large.avg_blocked_cycles::no_mshrs          nan                       # average number of cycles each access was blocked
system.cache_large.avg_blocked_cycles::no_targets          nan                       # average number of cycles each access was blocked
system.cache_large.replacements                     0                       # number of replacements
system.cache_large.power_state.pwrStateResidencyTicks::UNDEFINED  89370526000                       # Cumulative time (in ticks) in various power states
system.cache_large.tags.tagsinuse                   0                       # Cycle average of tags in use
system.cache_large.tags.total_refs                  0                       # Total number of references to valid blocks.
system.cache_large.tags.sampled_refs                0                       # Sample count of references to valid blocks.
system.cache_large.tags.avg_refs                  nan                       # Average number of references to valid blocks.
system.cache_large.tags.warmup_cycle                0                       # Cycle when the warmup percentage was hit.
system.cache_large.tags.tag_accesses                0                       # Number of tag accesses
system.cache_large.tags.data_accesses               0                       # Number of data accesses
system.cache_large.tags.power_state.pwrStateResidencyTicks::UNDEFINED  89370526000                       # Cumulative time (in ticks) in various power states
system.l2cache.demand_hits::.cpu.inst              70                       # number of demand (read+write) hits
system.l2cache.demand_hits::.cpu.data             127                       # number of demand (read+write) hits
system.l2cache.demand_hits::total                 197                       # number of demand (read+write) hits
system.l2cache.overall_hits::.cpu.inst             70                       # number of overall hits
system.l2cache.overall_hits::.cpu.data            127                       # number of overall hits
system.l2cache.overall_hits::total                197                       # number of overall hits
system.l2cache.demand_misses::.cpu.inst           889                       # number of demand (read+write) misses
system.l2cache.demand_misses::.cpu.data        724530                       # number of demand (read+write) misses
system.l2cache.demand_misses::total            725419                       # number of demand (read+write) misses
system.l2cache.overall_misses::.cpu.inst          889                       # number of overall misses
system.l2cache.overall_misses::.cpu.data       724530                       # number of overall misses
system.l2cache.overall_misses::total           725419                       # number of overall misses
system.l2cache.demand_miss_latency::.cpu.inst     54439000                       # number of demand (read+write) miss cycles
system.l2cache.demand_miss_latency::.cpu.data  53158797000                       # number of demand (read+write) miss cycles
system.l2cache.demand_miss_latency::total  53213236000                       # number of demand (read+write) miss cycles
system.l2cache.overall_miss_latency::.cpu.inst     54439000                       # number of overall miss cycles
system.l2cache.overall_miss_latency::.cpu.data  53158797000                       # number of overall miss cycles
system.l2cache.overall_miss_latency::total  53213236000                       # number of overall miss cycles
system.l2cache.demand_accesses::.cpu.inst          959                       # number of demand (read+write) accesses
system.l2cache.demand_accesses::.cpu.data       724657                       # number of demand (read+write) accesses
system.l2cache.demand_accesses::total          725616                       # number of demand (read+write) accesses
system.l2cache.overall_accesses::.cpu.inst          959                       # number of overall (read+write) accesses
system.l2cache.overall_accesses::.cpu.data       724657                       # number of overall (read+write) accesses
system.l2cache.overall_accesses::total         725616                       # number of overall (read+write) accesses
system.l2cache.demand_miss_rate::.cpu.inst     0.927007                       # miss rate for demand accesses
system.l2cache.demand_miss_rate::.cpu.data     0.999825                       # miss rate for demand accesses
system.l2cache.demand_miss_rate::total       0.999729                       # miss rate for demand accesses
system.l2cache.overall_miss_rate::.cpu.inst     0.927007                       # miss rate for overall accesses
system.l2cache.overall_miss_rate::.cpu.data     0.999825                       # miss rate for overall accesses
system.l2cache.overall_miss_rate::total      0.999729                       # miss rate for overall accesses
system.l2cache.demand_avg_miss_latency::.cpu.inst 61236.220472                       # average overall miss latency
system.l2cache.demand_avg_miss_latency::.cpu.data 73370.042648                       # average overall miss latency
system.l2cache.demand_avg_miss_latency::total 73355.172666                       # average overall miss latency
system.l2cache.overall_avg_miss_latency::.cpu.inst 61236.220472                       # average overall miss latency
system.l2cache.overall_avg_miss_latency::.cpu.data 73370.042648                       # average overall miss latency
system.l2cache.overall_avg_miss_latency::total 73355.172666                       # average overall miss latency
system.l2cache.blocked_cycles::no_mshrs             0                       # number of cycles access was blocked
system.l2cache.blocked_cycles::no_targets            0                       # number of cycles access was blocked
system.l2cache.blocked::no_mshrs                    0                       # number of cycles access was blocked
system.l2cache.blocked::no_targets                  0                       # number of cycles access was blocked
system.l2cache.avg_blocked_cycles::no_mshrs          nan                       # average number of cycles each access was blocked
system.l2cache.avg_blocked_cycles::no_targets          nan                       # average number of cycles each access was blocked
system.l2cache.writebacks::.writebacks         723940                       # number of writebacks
system.l2cache.writebacks::total               723940                       # number of writebacks
system.l2cache.demand_mshr_misses::.cpu.inst          889                       # number of demand (read+write) MSHR misses
system.l2cache.demand_mshr_misses::.cpu.data       724530                       # number of demand (read+write) MSHR misses
system.l2cache.demand_mshr_misses::total       725419                       # number of demand (read+write) MSHR misses
system.l2cache.overall_mshr_misses::.cpu.inst          889                       # number of overall MSHR misses
system.l2cache.overall_mshr_misses::.cpu.data       724530                       # number of overall MSHR misses
system.l2cache.overall_mshr_misses::total       725419                       # number of overall MSHR misses
system.l2cache.demand_mshr_miss_latency::.cpu.inst     52661000                       # number of demand (read+write) MSHR miss cycles
system.l2cache.demand_mshr_miss_latency::.cpu.data  51709737000                       # number of demand (read+write) MSHR miss cycles
system.l2cache.demand_mshr_miss_latency::total  51762398000                       # number of demand (read+write) MSHR miss cycles
system.l2cache.overall_mshr_miss_latency::.cpu.inst     52661000                       # number of overall MSHR miss cycles
system.l2cache.overall_mshr_miss_latency::.cpu.data  51709737000                       # number of overall MSHR miss cycles
system.l2cache.overall_mshr_miss_latency::total  51762398000                       # number of overall MSHR miss cycles
system.l2cache.demand_mshr_miss_rate::.cpu.inst     0.927007                       # mshr miss rate for demand accesses
system.l2cache.demand_mshr_miss_rate::.cpu.data     0.999825                       # mshr miss rate for demand accesses
system.l2cache.demand_mshr_miss_rate::total     0.999729                       # mshr miss rate for demand accesses
system.l2cache.overall_mshr_miss_rate::.cpu.inst     0.927007                       # mshr miss rate for overall accesses
system.l2cache.overall_mshr_miss_rate::.cpu.data     0.999825                       # mshr miss rate for overall accesses
system.l2cache.overall_mshr_miss_rate::total     0.999729                       # mshr miss rate for overall accesses
system.l2cache.demand_avg_mshr_miss_latency::.cpu.inst 59236.220472                       # average overall mshr miss latency
system.l2cache.demand_avg_mshr_miss_latency::.cpu.data 71370.042648                       # average overall mshr miss latency
system.l2cache.demand_avg_mshr_miss_latency::total 71355.172666                       # average overall mshr miss latency
system.l2cache.overall_avg_mshr_miss_latency::.cpu.inst 59236.220472                       # average overall mshr miss latency
system.l2cache.overall_avg_mshr_miss_latency::.cpu.data 71370.042648                       # average overall mshr miss latency
system.l2cache.overall_avg_mshr_miss_latency::total 71355.172666                       # average overall mshr miss latency
system.l2cache.replacements                    725144                       # number of replacements
system.l2cache.ReadReq_hits::.cpu.inst             70                       # number of ReadReq hits
system.l2cache.ReadReq_hits::.cpu.data            127                       # number of ReadReq hits
system.l2cache.ReadReq_hits::total                197                       # number of ReadReq hits
system.l2cache.ReadReq_misses::.cpu.inst          889                       # number of ReadReq misses
system.l2cache.ReadReq_misses::.cpu.data       724530                       # number of ReadReq misses
system.l2cache.ReadReq_misses::total           725419                       # number of ReadReq misses
system.l2cache.ReadReq_miss_latency::.cpu.inst     54439000                       # number of ReadReq miss cycles
system.l2cache.ReadReq_miss_latency::.cpu.data  53158797000                       # number of ReadReq miss cycles
system.l2cache.ReadReq_miss_latency::total  53213236000                       # number of ReadReq miss cycles
system.l2cache.ReadReq_accesses::.cpu.inst          959                       # number of ReadReq accesses(hits+misses)
system.l2cache.ReadReq_accesses::.cpu.data       724657                       # number of ReadReq accesses(hits+misses)
system.l2cache.ReadReq_accesses::total         725616                       # number of ReadReq accesses(hits+misses)
system.l2cache.ReadReq_miss_rate::.cpu.inst     0.927007                       # miss rate for ReadReq accesses
system.l2cache.ReadReq_miss_rate::.cpu.data     0.999825                       # miss rate for ReadReq accesses
system.l2cache.ReadReq_miss_rate::total      0.999729                       # miss rate for ReadReq accesses
system.l2cache.ReadReq_avg_miss_latency::.cpu.inst 61236.220472                       # average ReadReq miss latency
system.l2cache.ReadReq_avg_miss_latency::.cpu.data 73370.042648                       # average ReadReq miss latency
system.l2cache.ReadReq_avg_miss_latency::total 73355.172666                       # average ReadReq miss latency
system.l2cache.ReadReq_mshr_misses::.cpu.inst          889                       # number of ReadReq MSHR misses
system.l2cache.ReadReq_mshr_misses::.cpu.data       724530                       # number of ReadReq MSHR misses
system.l2cache.ReadReq_mshr_misses::total       725419                       # number of ReadReq MSHR misses
system.l2cache.ReadReq_mshr_miss_latency::.cpu.inst     52661000                       # number of ReadReq MSHR miss cycles
system.l2cache.ReadReq_mshr_miss_latency::.cpu.data  51709737000                       # number of ReadReq MSHR miss cycles
system.l2cache.ReadReq_mshr_miss_latency::total  51762398000                       # number of ReadReq MSHR miss cycles
system.l2cache.ReadReq_mshr_miss_rate::.cpu.inst     0.927007                       # mshr miss rate for ReadReq accesses
system.l2cache.ReadReq_mshr_miss_rate::.cpu.data     0.999825                       # mshr miss rate for ReadReq accesses
system.l2cache.ReadReq_mshr_miss_rate::total     0.999729                       # mshr miss rate for ReadReq accesses
system.l2cache.ReadReq_avg_mshr_miss_latency::.cpu.inst 59236.220472                       # average ReadReq mshr miss latency
system.l2cache.ReadReq_avg_mshr_miss_latency::.cpu.data 71370.042648                       # average ReadReq mshr miss latency
system.l2cache.ReadReq_avg_mshr_miss_latency::total 71355.172666                       # average ReadReq mshr miss latency
system.l2cache.WritebackDirty_hits::.writebacks       724229                       # number of WritebackDirty hits
system.l2cache.WritebackDirty_hits::total       724229                       # number of WritebackDirty hits
system.l2cache.WritebackDirty_accesses::.writebacks       724229                       # number of WritebackDirty accesses(hits+misses)
system.l2cache.WritebackDirty_accesses::total       724229                       # number of WritebackDirty accesses(hits+misses)
system.l2cache.power_state.pwrStateResidencyTicks::UNDEFINED  89370526000                       # Cumulative time (in ticks) in various power states
system.l2cache.tags.tagsinuse              511.558156                       # Cycle average of tags in use
system.l2cache.tags.total_refs                1449845                       # Total number of references to valid blocks.
system.l2cache.tags.sampled_refs               725656                       # Sample count of references to valid blocks.
system.l2cache.tags.avg_refs                 1.997978                       # Average number of references to valid blocks.
system.l2cache.tags.warmup_cycle                78000                       # Cycle when the warmup percentage was hit.
system.l2cache.tags.occ_blocks::.writebacks     0.117246                       # Average occupied blocks per requestor
system.l2cache.tags.occ_blocks::.cpu.inst     0.714214                       # Average occupied blocks per requestor
system.l2cache.tags.occ_blocks::.cpu.data   510.726695                       # Average occupied blocks per requestor
system.l2cache.tags.occ_percent::.writebacks     0.000229                       # Average percentage of cache occupancy
system.l2cache.tags.occ_percent::.cpu.inst     0.001395                       # Average percentage of cache occupancy
system.l2cache.tags.occ_percent::.cpu.data     0.997513                       # Average percentage of cache occupancy
system.l2cache.tags.occ_percent::total       0.999137                       # Average percentage of cache occupancy
system.l2cache.tags.occ_task_id_blocks::1024          512                       # Occupied blocks per task id
system.l2cache.tags.age_task_id_blocks_1024::0           83                       # Occupied blocks per task id
system.l2cache.tags.age_task_id_blocks_1024::1          429                       # Occupied blocks per task id
system.l2cache.tags.occ_task_id_percent::1024            1                       # Percentage of cache occupancy per task id
system.l2cache.tags.tag_accesses              2175501                       # Number of tag accesses
system.l2cache.tags.data_accesses             2175501                       # Number of data accesses
system.l2cache.tags.power_state.pwrStateResidencyTicks::UNDEFINED  89370526000                       # Cumulative time (in ticks) in various power states
system.l2bar.trans_dist::ReadReq               725616                       # Transaction distribution
system.l2bar.trans_dist::ReadResp              725616                       # Transaction distribution
system.l2bar.trans_dist::WritebackDirty        724229                       # Transaction distribution
system.l2bar.pkt_count_system.dcache.mem_side::system.l2cache.cpu_side      2173543                       # Packet count per connected master and slave (bytes)
system.l2bar.pkt_count_system.icache.mem_side::system.l2cache.cpu_side         1918                       # Packet count per connected master and slave (bytes)
system.l2bar.pkt_count::total                 2175461                       # Packet count per connected master and slave (bytes)
system.l2bar.pkt_size_system.dcache.mem_side::system.l2cache.cpu_side     92728704                       # Cumulative packet size per connected master and slave (bytes)
system.l2bar.pkt_size_system.icache.mem_side::system.l2cache.cpu_side        61376                       # Cumulative packet size per connected master and slave (bytes)
system.l2bar.pkt_size::total                 92790080                       # Cumulative packet size per connected master and slave (bytes)
system.l2bar.respLayer1.occupancy             4795000                       # Layer occupancy (ticks)
system.l2bar.respLayer1.utilization               0.0                       # Layer utilization (%)
system.l2bar.reqLayer0.occupancy           4346761000                       # Layer occupancy (ticks)
system.l2bar.reqLayer0.utilization                4.9                       # Layer utilization (%)
system.l2bar.respLayer0.occupancy          3623285000                       # Layer occupancy (ticks)
system.l2bar.respLayer0.utilization               4.1                       # Layer utilization (%)
system.l2bar.power_state.pwrStateResidencyTicks::UNDEFINED  89370526000                       # Cumulative time (in ticks) in various power states
system.cpu.dtb.walker.power_state.pwrStateResidencyTicks::UNDEFINED  89370526000                       # Cumulative time (in ticks) in various power states
system.cpu.interrupts.clk_domain.clock          16000                       # Clock period in ticks
system.cpu.itb.walker.power_state.pwrStateResidencyTicks::UNDEFINED  89370526000                       # Cumulative time (in ticks) in various power states
system.cpu.power_state.numTransitions               1                       # Number of power state transitions
system.cpu.power_state.pwrStateResidencyTicks::ON  89370526000                       # Cumulative time (in ticks) in various power states

---------- End Simulation Statistics   ----------
