
---------- Begin Simulation Statistics ----------
final_tick                                 4058897000                       # Number of ticks from beginning of simulation (restored from checkpoints and never reset)
host_inst_rate                                 150600                       # Simulator instruction rate (inst/s)
host_mem_usage                               34263780                       # Number of bytes of host memory used
host_op_rate                                   310343                       # Simulator op (including micro ops) rate (op/s)
host_seconds                                     6.64                       # Real time elapsed on the host
host_tick_rate                              611167387                       # Simulator tick rate (ticks/s)
sim_freq                                 1000000000000                       # Frequency of simulated ticks
sim_insts                                     1000122                       # Number of instructions simulated
sim_ops                                       2061042                       # Number of ops (including micro ops) simulated
sim_seconds                                  0.004059                       # Number of seconds simulated
sim_ticks                                  4058897000                       # Number of ticks simulated
system.cpu.Branches                            239939                       # Number of branches fetched
system.cpu.committedInsts                     1000122                       # Number of instructions committed
system.cpu.committedOps                       2061042                       # Number of ops (including micro ops) committed
system.cpu.dtb.rdAccesses                      201657                       # TLB accesses on read requests
system.cpu.dtb.rdMisses                            73                       # TLB misses on read requests
system.cpu.dtb.wrAccesses                      139216                       # TLB accesses on write requests
system.cpu.dtb.wrMisses                            62                       # TLB misses on write requests
system.cpu.idle_fraction                            0                       # Percentage of idle cycles
system.cpu.itb.rdAccesses                           0                       # TLB accesses on read requests
system.cpu.itb.rdMisses                             0                       # TLB misses on read requests
system.cpu.itb.wrAccesses                     1319631                       # TLB accesses on write requests
system.cpu.itb.wrMisses                           164                       # TLB misses on write requests
system.cpu.not_idle_fraction                        1                       # Percentage of non-idle cycles
system.cpu.numCycles                          4058886                       # number of cpu cycles simulated
system.cpu.numWorkItemsCompleted                    0                       # number of work items this cpu completed
system.cpu.numWorkItemsStarted                      0                       # number of work items this cpu started
system.cpu.num_busy_cycles                    4058886                       # Number of busy cycles
system.cpu.num_cc_register_reads              1493807                       # number of times the CC registers were read
system.cpu.num_cc_register_writes              635118                       # number of times the CC registers were written
system.cpu.num_conditional_control_insts       177068                       # number of instructions that are conditional controls
system.cpu.num_fp_alu_accesses                  81067                       # Number of float alu accesses
system.cpu.num_fp_insts                         81067                       # number of float instructions
system.cpu.num_fp_register_reads               136004                       # number of times the floating registers were read
system.cpu.num_fp_register_writes               68757                       # number of times the floating registers were written
system.cpu.num_func_calls                       43144                       # number of times a function call or return occured
system.cpu.num_idle_cycles                          0                       # Number of idle cycles
system.cpu.num_int_alu_accesses               1990736                       # Number of integer alu accesses
system.cpu.num_int_insts                      1990736                       # number of integer instructions
system.cpu.num_int_register_reads             3844886                       # number of times the integer registers were read
system.cpu.num_int_register_writes            1604197                       # number of times the integer registers were written
system.cpu.num_load_insts                      201383                       # Number of load instructions
system.cpu.num_mem_refs                        340508                       # number of memory refs
system.cpu.num_store_insts                     139125                       # Number of store instructions
system.cpu.num_vec_alu_accesses                     0                       # Number of vector alu accesses
system.cpu.num_vec_insts                            0                       # number of vector instructions
system.cpu.num_vec_register_reads                   0                       # number of times the vector registers were read
system.cpu.num_vec_register_writes                  0                       # number of times the vector registers were written
system.cpu.op_class::No_OpClass                 14306      0.69%      0.69% # Class of executed instruction
system.cpu.op_class::IntAlu                   1644441     79.79%     80.48% # Class of executed instruction
system.cpu.op_class::IntMult                       20      0.00%     80.48% # Class of executed instruction
system.cpu.op_class::IntDiv                        42      0.00%     80.48% # Class of executed instruction
system.cpu.op_class::FloatAdd                    2023      0.10%     80.58% # Class of executed instruction
system.cpu.op_class::FloatCmp                       0      0.00%     80.58% # Class of executed instruction
system.cpu.op_class::FloatCvt                       0      0.00%     80.58% # Class of executed instruction
system.cpu.op_class::FloatMult                      0      0.00%     80.58% # Class of executed instruction
system.cpu.op_class::FloatMultAcc                   0      0.00%     80.58% # Class of executed instruction
system.cpu.op_class::FloatDiv                       0      0.00%     80.58% # Class of executed instruction
system.cpu.op_class::FloatMisc                      0      0.00%     80.58% # Class of executed instruction
system.cpu.op_class::FloatSqrt                      0      0.00%     80.58% # Class of executed instruction
system.cpu.op_class::SimdAdd                       20      0.00%     80.58% # Class of executed instruction
system.cpu.op_class::SimdAddAcc                     0      0.00%     80.58% # Class of executed instruction
system.cpu.op_class::SimdAlu                    20424      0.99%     81.57% # Class of executed instruction
system.cpu.op_class::SimdCmp                      436      0.02%     81.59% # Class of executed instruction
system.cpu.op_class::SimdCvt                    14344      0.70%     82.29% # Class of executed instruction
system.cpu.op_class::SimdMisc                   24478      1.19%     83.48% # Class of executed instruction
system.cpu.op_class::SimdMult                       0      0.00%     83.48% # Class of executed instruction
system.cpu.op_class::SimdMultAcc                    0      0.00%     83.48% # Class of executed instruction
system.cpu.op_class::SimdShift                      0      0.00%     83.48% # Class of executed instruction
system.cpu.op_class::SimdShiftAcc                   0      0.00%     83.48% # Class of executed instruction
system.cpu.op_class::SimdDiv                        0      0.00%     83.48% # Class of executed instruction
system.cpu.op_class::SimdSqrt                       0      0.00%     83.48% # Class of executed instruction
system.cpu.op_class::SimdFloatAdd                   0      0.00%     83.48% # Class of executed instruction
system.cpu.op_class::SimdFloatAlu                   0      0.00%     83.48% # Class of executed instruction
system.cpu.op_class::SimdFloatCmp                   0      0.00%     83.48% # Class of executed instruction
system.cpu.op_class::SimdFloatCvt                   0      0.00%     83.48% # Class of executed instruction
system.cpu.op_class::SimdFloatDiv                  25      0.00%     83.48% # Class of executed instruction
system.cpu.op_class::SimdFloatMisc                  0      0.00%     83.48% # Class of executed instruction
system.cpu.op_class::SimdFloatMult                  0      0.00%     83.48% # Class of executed instruction
system.cpu.op_class::SimdFloatMultAcc               0      0.00%     83.48% # Class of executed instruction
system.cpu.op_class::SimdFloatSqrt                  0      0.00%     83.48% # Class of executed instruction
system.cpu.op_class::SimdReduceAdd                  0      0.00%     83.48% # Class of executed instruction
system.cpu.op_class::SimdReduceAlu                  0      0.00%     83.48% # Class of executed instruction
system.cpu.op_class::SimdReduceCmp                  0      0.00%     83.48% # Class of executed instruction
system.cpu.op_class::SimdFloatReduceAdd             0      0.00%     83.48% # Class of executed instruction
system.cpu.op_class::SimdFloatReduceCmp             0      0.00%     83.48% # Class of executed instruction
system.cpu.op_class::SimdAes                        0      0.00%     83.48% # Class of executed instruction
system.cpu.op_class::SimdAesMix                     0      0.00%     83.48% # Class of executed instruction
system.cpu.op_class::SimdSha1Hash                   0      0.00%     83.48% # Class of executed instruction
system.cpu.op_class::SimdSha1Hash2                  0      0.00%     83.48% # Class of executed instruction
system.cpu.op_class::SimdSha256Hash                 0      0.00%     83.48% # Class of executed instruction
system.cpu.op_class::SimdSha256Hash2                0      0.00%     83.48% # Class of executed instruction
system.cpu.op_class::SimdShaSigma2                  0      0.00%     83.48% # Class of executed instruction
system.cpu.op_class::SimdShaSigma3                  0      0.00%     83.48% # Class of executed instruction
system.cpu.op_class::SimdPredAlu                    0      0.00%     83.48% # Class of executed instruction
system.cpu.op_class::MemRead                   190095      9.22%     92.70% # Class of executed instruction
system.cpu.op_class::MemWrite                  137132      6.65%     99.36% # Class of executed instruction
system.cpu.op_class::FloatMemRead               11288      0.55%     99.90% # Class of executed instruction
system.cpu.op_class::FloatMemWrite               1993      0.10%    100.00% # Class of executed instruction
system.cpu.op_class::IprAccess                      0      0.00%    100.00% # Class of executed instruction
system.cpu.op_class::InstPrefetch                   0      0.00%    100.00% # Class of executed instruction
system.cpu.op_class::total                    2061067                       # Class of executed instruction
system.cpu.workload.numSyscalls                   127                       # Number of system calls
system.dynamic_cache.flushTicks                     0                       # Ticks taken to flush
system.dynamic_cache.numFlushes                     0                       # Number of Flushes Taken
system.cache_small.demand_hits::.cpu.inst         9163                       # number of demand (read+write) hits
system.cache_small.demand_hits::.cpu.data         1506                       # number of demand (read+write) hits
system.cache_small.demand_hits::total           10669                       # number of demand (read+write) hits
system.cache_small.overall_hits::.cpu.inst         9163                       # number of overall hits
system.cache_small.overall_hits::.cpu.data         1506                       # number of overall hits
system.cache_small.overall_hits::total          10669                       # number of overall hits
system.cache_small.demand_misses::.cpu.inst         3262                       # number of demand (read+write) misses
system.cache_small.demand_misses::.cpu.data         2458                       # number of demand (read+write) misses
system.cache_small.demand_misses::total          5720                       # number of demand (read+write) misses
system.cache_small.overall_misses::.cpu.inst         3262                       # number of overall misses
system.cache_small.overall_misses::.cpu.data         2458                       # number of overall misses
system.cache_small.overall_misses::total         5720                       # number of overall misses
system.cache_small.demand_miss_latency::.cpu.inst    201348000                       # number of demand (read+write) miss cycles
system.cache_small.demand_miss_latency::.cpu.data    149833000                       # number of demand (read+write) miss cycles
system.cache_small.demand_miss_latency::total    351181000                       # number of demand (read+write) miss cycles
system.cache_small.overall_miss_latency::.cpu.inst    201348000                       # number of overall miss cycles
system.cache_small.overall_miss_latency::.cpu.data    149833000                       # number of overall miss cycles
system.cache_small.overall_miss_latency::total    351181000                       # number of overall miss cycles
system.cache_small.demand_accesses::.cpu.inst        12425                       # number of demand (read+write) accesses
system.cache_small.demand_accesses::.cpu.data         3964                       # number of demand (read+write) accesses
system.cache_small.demand_accesses::total        16389                       # number of demand (read+write) accesses
system.cache_small.overall_accesses::.cpu.inst        12425                       # number of overall (read+write) accesses
system.cache_small.overall_accesses::.cpu.data         3964                       # number of overall (read+write) accesses
system.cache_small.overall_accesses::total        16389                       # number of overall (read+write) accesses
system.cache_small.demand_miss_rate::.cpu.inst     0.262535                       # miss rate for demand accesses
system.cache_small.demand_miss_rate::.cpu.data     0.620081                       # miss rate for demand accesses
system.cache_small.demand_miss_rate::total     0.349015                       # miss rate for demand accesses
system.cache_small.overall_miss_rate::.cpu.inst     0.262535                       # miss rate for overall accesses
system.cache_small.overall_miss_rate::.cpu.data     0.620081                       # miss rate for overall accesses
system.cache_small.overall_miss_rate::total     0.349015                       # miss rate for overall accesses
system.cache_small.demand_avg_miss_latency::.cpu.inst 61725.321888                       # average overall miss latency
system.cache_small.demand_avg_miss_latency::.cpu.data 60957.282343                       # average overall miss latency
system.cache_small.demand_avg_miss_latency::total 61395.279720                       # average overall miss latency
system.cache_small.overall_avg_miss_latency::.cpu.inst 61725.321888                       # average overall miss latency
system.cache_small.overall_avg_miss_latency::.cpu.data 60957.282343                       # average overall miss latency
system.cache_small.overall_avg_miss_latency::total 61395.279720                       # average overall miss latency
system.cache_small.blocked_cycles::no_mshrs            0                       # number of cycles access was blocked
system.cache_small.blocked_cycles::no_targets            0                       # number of cycles access was blocked
system.cache_small.blocked::no_mshrs                0                       # number of cycles access was blocked
system.cache_small.blocked::no_targets              0                       # number of cycles access was blocked
system.cache_small.avg_blocked_cycles::no_mshrs          nan                       # average number of cycles each access was blocked
system.cache_small.avg_blocked_cycles::no_targets          nan                       # average number of cycles each access was blocked
system.cache_small.writebacks::.writebacks          406                       # number of writebacks
system.cache_small.writebacks::total              406                       # number of writebacks
system.cache_small.demand_mshr_misses::.cpu.inst         3262                       # number of demand (read+write) MSHR misses
system.cache_small.demand_mshr_misses::.cpu.data         2458                       # number of demand (read+write) MSHR misses
system.cache_small.demand_mshr_misses::total         5720                       # number of demand (read+write) MSHR misses
system.cache_small.overall_mshr_misses::.cpu.inst         3262                       # number of overall MSHR misses
system.cache_small.overall_mshr_misses::.cpu.data         2458                       # number of overall MSHR misses
system.cache_small.overall_mshr_misses::total         5720                       # number of overall MSHR misses
system.cache_small.demand_mshr_miss_latency::.cpu.inst    194824000                       # number of demand (read+write) MSHR miss cycles
system.cache_small.demand_mshr_miss_latency::.cpu.data    144917000                       # number of demand (read+write) MSHR miss cycles
system.cache_small.demand_mshr_miss_latency::total    339741000                       # number of demand (read+write) MSHR miss cycles
system.cache_small.overall_mshr_miss_latency::.cpu.inst    194824000                       # number of overall MSHR miss cycles
system.cache_small.overall_mshr_miss_latency::.cpu.data    144917000                       # number of overall MSHR miss cycles
system.cache_small.overall_mshr_miss_latency::total    339741000                       # number of overall MSHR miss cycles
system.cache_small.demand_mshr_miss_rate::.cpu.inst     0.262535                       # mshr miss rate for demand accesses
system.cache_small.demand_mshr_miss_rate::.cpu.data     0.620081                       # mshr miss rate for demand accesses
system.cache_small.demand_mshr_miss_rate::total     0.349015                       # mshr miss rate for demand accesses
system.cache_small.overall_mshr_miss_rate::.cpu.inst     0.262535                       # mshr miss rate for overall accesses
system.cache_small.overall_mshr_miss_rate::.cpu.data     0.620081                       # mshr miss rate for overall accesses
system.cache_small.overall_mshr_miss_rate::total     0.349015                       # mshr miss rate for overall accesses
system.cache_small.demand_avg_mshr_miss_latency::.cpu.inst 59725.321888                       # average overall mshr miss latency
system.cache_small.demand_avg_mshr_miss_latency::.cpu.data 58957.282343                       # average overall mshr miss latency
system.cache_small.demand_avg_mshr_miss_latency::total 59395.279720                       # average overall mshr miss latency
system.cache_small.overall_avg_mshr_miss_latency::.cpu.inst 59725.321888                       # average overall mshr miss latency
system.cache_small.overall_avg_mshr_miss_latency::.cpu.data 58957.282343                       # average overall mshr miss latency
system.cache_small.overall_avg_mshr_miss_latency::total 59395.279720                       # average overall mshr miss latency
system.cache_small.replacements                  3084                       # number of replacements
system.cache_small.ReadReq_hits::.cpu.inst         9163                       # number of ReadReq hits
system.cache_small.ReadReq_hits::.cpu.data         1506                       # number of ReadReq hits
system.cache_small.ReadReq_hits::total          10669                       # number of ReadReq hits
system.cache_small.ReadReq_misses::.cpu.inst         3262                       # number of ReadReq misses
system.cache_small.ReadReq_misses::.cpu.data         2458                       # number of ReadReq misses
system.cache_small.ReadReq_misses::total         5720                       # number of ReadReq misses
system.cache_small.ReadReq_miss_latency::.cpu.inst    201348000                       # number of ReadReq miss cycles
system.cache_small.ReadReq_miss_latency::.cpu.data    149833000                       # number of ReadReq miss cycles
system.cache_small.ReadReq_miss_latency::total    351181000                       # number of ReadReq miss cycles
system.cache_small.ReadReq_accesses::.cpu.inst        12425                       # number of ReadReq accesses(hits+misses)
system.cache_small.ReadReq_accesses::.cpu.data         3964                       # number of ReadReq accesses(hits+misses)
system.cache_small.ReadReq_accesses::total        16389                       # number of ReadReq accesses(hits+misses)
system.cache_small.ReadReq_miss_rate::.cpu.inst     0.262535                       # miss rate for ReadReq accesses
system.cache_small.ReadReq_miss_rate::.cpu.data     0.620081                       # miss rate for ReadReq accesses
system.cache_small.ReadReq_miss_rate::total     0.349015                       # miss rate for ReadReq accesses
system.cache_small.ReadReq_avg_miss_latency::.cpu.inst 61725.321888                       # average ReadReq miss latency
system.cache_small.ReadReq_avg_miss_latency::.cpu.data 60957.282343                       # average ReadReq miss latency
system.cache_small.ReadReq_avg_miss_latency::total 61395.279720                       # average ReadReq miss latency
system.cache_small.ReadReq_mshr_misses::.cpu.inst         3262                       # number of ReadReq MSHR misses
system.cache_small.ReadReq_mshr_misses::.cpu.data         2458                       # number of ReadReq MSHR misses
system.cache_small.ReadReq_mshr_misses::total         5720                       # number of ReadReq MSHR misses
system.cache_small.ReadReq_mshr_miss_latency::.cpu.inst    194824000                       # number of ReadReq MSHR miss cycles
system.cache_small.ReadReq_mshr_miss_latency::.cpu.data    144917000                       # number of ReadReq MSHR miss cycles
system.cache_small.ReadReq_mshr_miss_latency::total    339741000                       # number of ReadReq MSHR miss cycles
system.cache_small.ReadReq_mshr_miss_rate::.cpu.inst     0.262535                       # mshr miss rate for ReadReq accesses
system.cache_small.ReadReq_mshr_miss_rate::.cpu.data     0.620081                       # mshr miss rate for ReadReq accesses
system.cache_small.ReadReq_mshr_miss_rate::total     0.349015                       # mshr miss rate for ReadReq accesses
system.cache_small.ReadReq_avg_mshr_miss_latency::.cpu.inst 59725.321888                       # average ReadReq mshr miss latency
system.cache_small.ReadReq_avg_mshr_miss_latency::.cpu.data 58957.282343                       # average ReadReq mshr miss latency
system.cache_small.ReadReq_avg_mshr_miss_latency::total 59395.279720                       # average ReadReq mshr miss latency
system.cache_small.WritebackDirty_hits::.writebacks         2939                       # number of WritebackDirty hits
system.cache_small.WritebackDirty_hits::total         2939                       # number of WritebackDirty hits
system.cache_small.WritebackDirty_accesses::.writebacks         2939                       # number of WritebackDirty accesses(hits+misses)
system.cache_small.WritebackDirty_accesses::total         2939                       # number of WritebackDirty accesses(hits+misses)
system.cache_small.power_state.pwrStateResidencyTicks::UNDEFINED   4058897000                       # Cumulative time (in ticks) in various power states
system.cache_small.tags.tagsinuse         2315.000251                       # Cycle average of tags in use
system.cache_small.tags.total_refs               7343                       # Total number of references to valid blocks.
system.cache_small.tags.sampled_refs             3084                       # Sample count of references to valid blocks.
system.cache_small.tags.avg_refs             2.380999                       # Average number of references to valid blocks.
system.cache_small.tags.warmup_cycle            76000                       # Cycle when the warmup percentage was hit.
system.cache_small.tags.occ_blocks::.writebacks    68.865935                       # Average occupied blocks per requestor
system.cache_small.tags.occ_blocks::.cpu.inst   983.403765                       # Average occupied blocks per requestor
system.cache_small.tags.occ_blocks::.cpu.data  1262.730551                       # Average occupied blocks per requestor
system.cache_small.tags.occ_percent::.writebacks     0.016813                       # Average percentage of cache occupancy
system.cache_small.tags.occ_percent::.cpu.inst     0.240089                       # Average percentage of cache occupancy
system.cache_small.tags.occ_percent::.cpu.data     0.308284                       # Average percentage of cache occupancy
system.cache_small.tags.occ_percent::total     0.565186                       # Average percentage of cache occupancy
system.cache_small.tags.occ_task_id_blocks::1024         2874                       # Occupied blocks per task id
system.cache_small.tags.age_task_id_blocks_1024::0           17                       # Occupied blocks per task id
system.cache_small.tags.age_task_id_blocks_1024::1           32                       # Occupied blocks per task id
system.cache_small.tags.age_task_id_blocks_1024::2          195                       # Occupied blocks per task id
system.cache_small.tags.age_task_id_blocks_1024::3         2630                       # Occupied blocks per task id
system.cache_small.tags.occ_task_id_percent::1024     0.701660                       # Percentage of cache occupancy per task id
system.cache_small.tags.tag_accesses            25286                       # Number of tag accesses
system.cache_small.tags.data_accesses           25286                       # Number of data accesses
system.cache_small.tags.power_state.pwrStateResidencyTicks::UNDEFINED   4058897000                       # Cumulative time (in ticks) in various power states
system.icache.demand_hits::.cpu.inst          1303604                       # number of demand (read+write) hits
system.icache.demand_hits::total              1303604                       # number of demand (read+write) hits
system.icache.overall_hits::.cpu.inst         1303604                       # number of overall hits
system.icache.overall_hits::total             1303604                       # number of overall hits
system.icache.demand_misses::.cpu.inst          16027                       # number of demand (read+write) misses
system.icache.demand_misses::total              16027                       # number of demand (read+write) misses
system.icache.overall_misses::.cpu.inst         16027                       # number of overall misses
system.icache.overall_misses::total             16027                       # number of overall misses
system.icache.demand_miss_latency::.cpu.inst    485280000                       # number of demand (read+write) miss cycles
system.icache.demand_miss_latency::total    485280000                       # number of demand (read+write) miss cycles
system.icache.overall_miss_latency::.cpu.inst    485280000                       # number of overall miss cycles
system.icache.overall_miss_latency::total    485280000                       # number of overall miss cycles
system.icache.demand_accesses::.cpu.inst      1319631                       # number of demand (read+write) accesses
system.icache.demand_accesses::total          1319631                       # number of demand (read+write) accesses
system.icache.overall_accesses::.cpu.inst      1319631                       # number of overall (read+write) accesses
system.icache.overall_accesses::total         1319631                       # number of overall (read+write) accesses
system.icache.demand_miss_rate::.cpu.inst     0.012145                       # miss rate for demand accesses
system.icache.demand_miss_rate::total        0.012145                       # miss rate for demand accesses
system.icache.overall_miss_rate::.cpu.inst     0.012145                       # miss rate for overall accesses
system.icache.overall_miss_rate::total       0.012145                       # miss rate for overall accesses
system.icache.demand_avg_miss_latency::.cpu.inst 30278.904349                       # average overall miss latency
system.icache.demand_avg_miss_latency::total 30278.904349                       # average overall miss latency
system.icache.overall_avg_miss_latency::.cpu.inst 30278.904349                       # average overall miss latency
system.icache.overall_avg_miss_latency::total 30278.904349                       # average overall miss latency
system.icache.blocked_cycles::no_mshrs              0                       # number of cycles access was blocked
system.icache.blocked_cycles::no_targets            0                       # number of cycles access was blocked
system.icache.blocked::no_mshrs                     0                       # number of cycles access was blocked
system.icache.blocked::no_targets                   0                       # number of cycles access was blocked
system.icache.avg_blocked_cycles::no_mshrs          nan                       # average number of cycles each access was blocked
system.icache.avg_blocked_cycles::no_targets          nan                       # average number of cycles each access was blocked
system.icache.demand_mshr_misses::.cpu.inst        16027                       # number of demand (read+write) MSHR misses
system.icache.demand_mshr_misses::total         16027                       # number of demand (read+write) MSHR misses
system.icache.overall_mshr_misses::.cpu.inst        16027                       # number of overall MSHR misses
system.icache.overall_mshr_misses::total        16027                       # number of overall MSHR misses
system.icache.demand_mshr_miss_latency::.cpu.inst    453228000                       # number of demand (read+write) MSHR miss cycles
system.icache.demand_mshr_miss_latency::total    453228000                       # number of demand (read+write) MSHR miss cycles
system.icache.overall_mshr_miss_latency::.cpu.inst    453228000                       # number of overall MSHR miss cycles
system.icache.overall_mshr_miss_latency::total    453228000                       # number of overall MSHR miss cycles
system.icache.demand_mshr_miss_rate::.cpu.inst     0.012145                       # mshr miss rate for demand accesses
system.icache.demand_mshr_miss_rate::total     0.012145                       # mshr miss rate for demand accesses
system.icache.overall_mshr_miss_rate::.cpu.inst     0.012145                       # mshr miss rate for overall accesses
system.icache.overall_mshr_miss_rate::total     0.012145                       # mshr miss rate for overall accesses
system.icache.demand_avg_mshr_miss_latency::.cpu.inst 28279.029138                       # average overall mshr miss latency
system.icache.demand_avg_mshr_miss_latency::total 28279.029138                       # average overall mshr miss latency
system.icache.overall_avg_mshr_miss_latency::.cpu.inst 28279.029138                       # average overall mshr miss latency
system.icache.overall_avg_mshr_miss_latency::total 28279.029138                       # average overall mshr miss latency
system.icache.replacements                      15770                       # number of replacements
system.icache.ReadReq_hits::.cpu.inst         1303604                       # number of ReadReq hits
system.icache.ReadReq_hits::total             1303604                       # number of ReadReq hits
system.icache.ReadReq_misses::.cpu.inst         16027                       # number of ReadReq misses
system.icache.ReadReq_misses::total             16027                       # number of ReadReq misses
system.icache.ReadReq_miss_latency::.cpu.inst    485280000                       # number of ReadReq miss cycles
system.icache.ReadReq_miss_latency::total    485280000                       # number of ReadReq miss cycles
system.icache.ReadReq_accesses::.cpu.inst      1319631                       # number of ReadReq accesses(hits+misses)
system.icache.ReadReq_accesses::total         1319631                       # number of ReadReq accesses(hits+misses)
system.icache.ReadReq_miss_rate::.cpu.inst     0.012145                       # miss rate for ReadReq accesses
system.icache.ReadReq_miss_rate::total       0.012145                       # miss rate for ReadReq accesses
system.icache.ReadReq_avg_miss_latency::.cpu.inst 30278.904349                       # average ReadReq miss latency
system.icache.ReadReq_avg_miss_latency::total 30278.904349                       # average ReadReq miss latency
system.icache.ReadReq_mshr_misses::.cpu.inst        16027                       # number of ReadReq MSHR misses
system.icache.ReadReq_mshr_misses::total        16027                       # number of ReadReq MSHR misses
system.icache.ReadReq_mshr_miss_latency::.cpu.inst    453228000                       # number of ReadReq MSHR miss cycles
system.icache.ReadReq_mshr_miss_latency::total    453228000                       # number of ReadReq MSHR miss cycles
system.icache.ReadReq_mshr_miss_rate::.cpu.inst     0.012145                       # mshr miss rate for ReadReq accesses
system.icache.ReadReq_mshr_miss_rate::total     0.012145                       # mshr miss rate for ReadReq accesses
system.icache.ReadReq_avg_mshr_miss_latency::.cpu.inst 28279.029138                       # average ReadReq mshr miss latency
system.icache.ReadReq_avg_mshr_miss_latency::total 28279.029138                       # average ReadReq mshr miss latency
system.icache.power_state.pwrStateResidencyTicks::UNDEFINED   4058897000                       # Cumulative time (in ticks) in various power states
system.icache.tags.tagsinuse               251.541567                       # Cycle average of tags in use
system.icache.tags.total_refs                 1117739                       # Total number of references to valid blocks.
system.icache.tags.sampled_refs                 15770                       # Sample count of references to valid blocks.
system.icache.tags.avg_refs                 70.877552                       # Average number of references to valid blocks.
system.icache.tags.warmup_cycle                 82000                       # Cycle when the warmup percentage was hit.
system.icache.tags.occ_blocks::.cpu.inst   251.541567                       # Average occupied blocks per requestor
system.icache.tags.occ_percent::.cpu.inst     0.982584                       # Average percentage of cache occupancy
system.icache.tags.occ_percent::total        0.982584                       # Average percentage of cache occupancy
system.icache.tags.occ_task_id_blocks::1024          256                       # Occupied blocks per task id
system.icache.tags.age_task_id_blocks_1024::0           43                       # Occupied blocks per task id
system.icache.tags.age_task_id_blocks_1024::1           31                       # Occupied blocks per task id
system.icache.tags.age_task_id_blocks_1024::2           36                       # Occupied blocks per task id
system.icache.tags.age_task_id_blocks_1024::3          146                       # Occupied blocks per task id
system.icache.tags.occ_task_id_percent::1024            1                       # Percentage of cache occupancy per task id
system.icache.tags.tag_accesses               1335657                       # Number of tag accesses
system.icache.tags.data_accesses              1335657                       # Number of data accesses
system.icache.tags.power_state.pwrStateResidencyTicks::UNDEFINED   4058897000                       # Cumulative time (in ticks) in various power states
system.membus.trans_dist::ReadReq                5720                       # Transaction distribution
system.membus.trans_dist::ReadResp               5720                       # Transaction distribution
system.membus.trans_dist::WritebackDirty          406                       # Transaction distribution
system.membus.pkt_count_system.cache_small.mem_side::system.mem_ctrl.port        11846                       # Packet count per connected master and slave (bytes)
system.membus.pkt_count_system.cache_small.mem_side::total        11846                       # Packet count per connected master and slave (bytes)
system.membus.pkt_count::total                  11846                       # Packet count per connected master and slave (bytes)
system.membus.pkt_size_system.cache_small.mem_side::system.mem_ctrl.port       392064                       # Cumulative packet size per connected master and slave (bytes)
system.membus.pkt_size_system.cache_small.mem_side::total       392064                       # Cumulative packet size per connected master and slave (bytes)
system.membus.pkt_size::total                  392064                       # Cumulative packet size per connected master and slave (bytes)
system.membus.reqLayer2.occupancy             7750000                       # Layer occupancy (ticks)
system.membus.reqLayer2.utilization               0.2                       # Layer utilization (%)
system.membus.respLayer1.occupancy           30605500                       # Layer occupancy (ticks)
system.membus.respLayer1.utilization              0.8                       # Layer utilization (%)
system.membus.power_state.pwrStateResidencyTicks::UNDEFINED   4058897000                       # Cumulative time (in ticks) in various power states
system.mem_ctrl.bytes_read::.cpu.inst          208768                       # Number of bytes read from this memory
system.mem_ctrl.bytes_read::.cpu.data          157312                       # Number of bytes read from this memory
system.mem_ctrl.bytes_read::total              366080                       # Number of bytes read from this memory
system.mem_ctrl.bytes_inst_read::.cpu.inst       208768                       # Number of instructions bytes read from this memory
system.mem_ctrl.bytes_inst_read::total         208768                       # Number of instructions bytes read from this memory
system.mem_ctrl.bytes_written::.writebacks        25984                       # Number of bytes written to this memory
system.mem_ctrl.bytes_written::total            25984                       # Number of bytes written to this memory
system.mem_ctrl.num_reads::.cpu.inst             3262                       # Number of read requests responded to by this memory
system.mem_ctrl.num_reads::.cpu.data             2458                       # Number of read requests responded to by this memory
system.mem_ctrl.num_reads::total                 5720                       # Number of read requests responded to by this memory
system.mem_ctrl.num_writes::.writebacks           406                       # Number of write requests responded to by this memory
system.mem_ctrl.num_writes::total                 406                       # Number of write requests responded to by this memory
system.mem_ctrl.bw_read::.cpu.inst           51434663                       # Total read bandwidth from this memory (bytes/s)
system.mem_ctrl.bw_read::.cpu.data           38757327                       # Total read bandwidth from this memory (bytes/s)
system.mem_ctrl.bw_read::total               90191991                       # Total read bandwidth from this memory (bytes/s)
system.mem_ctrl.bw_inst_read::.cpu.inst      51434663                       # Instruction read bandwidth from this memory (bytes/s)
system.mem_ctrl.bw_inst_read::total          51434663                       # Instruction read bandwidth from this memory (bytes/s)
system.mem_ctrl.bw_write::.writebacks         6401739                       # Write bandwidth from this memory (bytes/s)
system.mem_ctrl.bw_write::total               6401739                       # Write bandwidth from this memory (bytes/s)
system.mem_ctrl.bw_total::.writebacks         6401739                       # Total bandwidth to/from this memory (bytes/s)
system.mem_ctrl.bw_total::.cpu.inst          51434663                       # Total bandwidth to/from this memory (bytes/s)
system.mem_ctrl.bw_total::.cpu.data          38757327                       # Total bandwidth to/from this memory (bytes/s)
system.mem_ctrl.bw_total::total              96593730                       # Total bandwidth to/from this memory (bytes/s)
system.mem_ctrl.avgPriority_.writebacks::samples       325.00                       # Average QoS priority value for accepted requests
system.mem_ctrl.avgPriority_.cpu.inst::samples      3262.00                       # Average QoS priority value for accepted requests
system.mem_ctrl.avgPriority_.cpu.data::samples      2382.00                       # Average QoS priority value for accepted requests
system.mem_ctrl.priorityMinLatency       0.000000018750                       # per QoS priority minimum request to response latency (s)
system.mem_ctrl.priorityMaxLatency       0.002562832750                       # per QoS priority maximum request to response latency (s)
system.mem_ctrl.numReadWriteTurnArounds            17                       # Number of turnarounds from READ to WRITE
system.mem_ctrl.numWriteReadTurnArounds            17                       # Number of turnarounds from WRITE to READ
system.mem_ctrl.numStayReadState                12732                       # Number of times bus staying in READ state
system.mem_ctrl.numStayWriteState                 283                       # Number of times bus staying in WRITE state
system.mem_ctrl.readReqs                         5720                       # Number of read requests accepted
system.mem_ctrl.writeReqs                         406                       # Number of write requests accepted
system.mem_ctrl.readBursts                       5720                       # Number of DRAM read bursts, including those serviced by the write queue
system.mem_ctrl.writeBursts                       406                       # Number of DRAM write bursts, including those merged in the write queue
system.mem_ctrl.servicedByWrQ                      76                       # Number of DRAM read bursts serviced by the write queue
system.mem_ctrl.mergedWrBursts                     81                       # Number of DRAM write bursts merged with an existing one
system.mem_ctrl.neitherReadNorWriteReqs             0                       # Number of requests that are neither read nor write
system.mem_ctrl.perBankRdBursts::0                298                       # Per bank write bursts
system.mem_ctrl.perBankRdBursts::1                360                       # Per bank write bursts
system.mem_ctrl.perBankRdBursts::2                267                       # Per bank write bursts
system.mem_ctrl.perBankRdBursts::3                 85                       # Per bank write bursts
system.mem_ctrl.perBankRdBursts::4                257                       # Per bank write bursts
system.mem_ctrl.perBankRdBursts::5                321                       # Per bank write bursts
system.mem_ctrl.perBankRdBursts::6                230                       # Per bank write bursts
system.mem_ctrl.perBankRdBursts::7                399                       # Per bank write bursts
system.mem_ctrl.perBankRdBursts::8                204                       # Per bank write bursts
system.mem_ctrl.perBankRdBursts::9                257                       # Per bank write bursts
system.mem_ctrl.perBankRdBursts::10               225                       # Per bank write bursts
system.mem_ctrl.perBankRdBursts::11              1422                       # Per bank write bursts
system.mem_ctrl.perBankRdBursts::12               366                       # Per bank write bursts
system.mem_ctrl.perBankRdBursts::13               272                       # Per bank write bursts
system.mem_ctrl.perBankRdBursts::14               365                       # Per bank write bursts
system.mem_ctrl.perBankRdBursts::15               316                       # Per bank write bursts
system.mem_ctrl.perBankWrBursts::0                 11                       # Per bank write bursts
system.mem_ctrl.perBankWrBursts::1                  3                       # Per bank write bursts
system.mem_ctrl.perBankWrBursts::2                  8                       # Per bank write bursts
system.mem_ctrl.perBankWrBursts::3                  0                       # Per bank write bursts
system.mem_ctrl.perBankWrBursts::4                 43                       # Per bank write bursts
system.mem_ctrl.perBankWrBursts::5                 72                       # Per bank write bursts
system.mem_ctrl.perBankWrBursts::6                  2                       # Per bank write bursts
system.mem_ctrl.perBankWrBursts::7                  0                       # Per bank write bursts
system.mem_ctrl.perBankWrBursts::8                  8                       # Per bank write bursts
system.mem_ctrl.perBankWrBursts::9                 25                       # Per bank write bursts
system.mem_ctrl.perBankWrBursts::10                10                       # Per bank write bursts
system.mem_ctrl.perBankWrBursts::11                57                       # Per bank write bursts
system.mem_ctrl.perBankWrBursts::12                23                       # Per bank write bursts
system.mem_ctrl.perBankWrBursts::13                11                       # Per bank write bursts
system.mem_ctrl.perBankWrBursts::14                 7                       # Per bank write bursts
system.mem_ctrl.perBankWrBursts::15                20                       # Per bank write bursts
system.mem_ctrl.avgRdQLen                        1.00                       # Average read queue length when enqueuing
system.mem_ctrl.avgWrQLen                       22.16                       # Average write queue length when enqueuing
system.mem_ctrl.totQLat                      55350500                       # Total ticks spent queuing
system.mem_ctrl.totBusLat                    28220000                       # Total ticks spent in databus transfers
system.mem_ctrl.totMemAccLat                161175500                       # Total ticks spent from burst creation until serviced by the DRAM
system.mem_ctrl.avgQLat                       9806.96                       # Average queueing delay per DRAM burst
system.mem_ctrl.avgBusLat                     5000.00                       # Average bus latency per DRAM burst
system.mem_ctrl.avgMemAccLat                 28556.96                       # Average memory access latency per DRAM burst
system.mem_ctrl.numRdRetry                          0                       # Number of times read queue was full causing retry
system.mem_ctrl.numWrRetry                          0                       # Number of times write queue was full causing retry
system.mem_ctrl.readRowHits                      3640                       # Number of row buffer hits during reads
system.mem_ctrl.writeRowHits                      240                       # Number of row buffer hits during writes
system.mem_ctrl.readRowHitRate                  64.49                       # Row buffer hit rate for reads
system.mem_ctrl.writeRowHitRate                 73.85                       # Row buffer hit rate for writes
system.mem_ctrl.readPktSize::0                      0                       # Read request sizes (log2)
system.mem_ctrl.readPktSize::1                      0                       # Read request sizes (log2)
system.mem_ctrl.readPktSize::2                      0                       # Read request sizes (log2)
system.mem_ctrl.readPktSize::3                      0                       # Read request sizes (log2)
system.mem_ctrl.readPktSize::4                      0                       # Read request sizes (log2)
system.mem_ctrl.readPktSize::5                      0                       # Read request sizes (log2)
system.mem_ctrl.readPktSize::6                   5720                       # Read request sizes (log2)
system.mem_ctrl.writePktSize::0                     0                       # Write request sizes (log2)
system.mem_ctrl.writePktSize::1                     0                       # Write request sizes (log2)
system.mem_ctrl.writePktSize::2                     0                       # Write request sizes (log2)
system.mem_ctrl.writePktSize::3                     0                       # Write request sizes (log2)
system.mem_ctrl.writePktSize::4                     0                       # Write request sizes (log2)
system.mem_ctrl.writePktSize::5                     0                       # Write request sizes (log2)
system.mem_ctrl.writePktSize::6                   406                       # Write request sizes (log2)
system.mem_ctrl.rdQLenPdf::0                     5644                       # What read queue length does an incoming req see
system.mem_ctrl.rdQLenPdf::1                        0                       # What read queue length does an incoming req see
system.mem_ctrl.rdQLenPdf::2                        0                       # What read queue length does an incoming req see
system.mem_ctrl.rdQLenPdf::3                        0                       # What read queue length does an incoming req see
system.mem_ctrl.rdQLenPdf::4                        0                       # What read queue length does an incoming req see
system.mem_ctrl.rdQLenPdf::5                        0                       # What read queue length does an incoming req see
system.mem_ctrl.rdQLenPdf::6                        0                       # What read queue length does an incoming req see
system.mem_ctrl.rdQLenPdf::7                        0                       # What read queue length does an incoming req see
system.mem_ctrl.rdQLenPdf::8                        0                       # What read queue length does an incoming req see
system.mem_ctrl.rdQLenPdf::9                        0                       # What read queue length does an incoming req see
system.mem_ctrl.rdQLenPdf::10                       0                       # What read queue length does an incoming req see
system.mem_ctrl.rdQLenPdf::11                       0                       # What read queue length does an incoming req see
system.mem_ctrl.rdQLenPdf::12                       0                       # What read queue length does an incoming req see
system.mem_ctrl.rdQLenPdf::13                       0                       # What read queue length does an incoming req see
system.mem_ctrl.rdQLenPdf::14                       0                       # What read queue length does an incoming req see
system.mem_ctrl.rdQLenPdf::15                       0                       # What read queue length does an incoming req see
system.mem_ctrl.rdQLenPdf::16                       0                       # What read queue length does an incoming req see
system.mem_ctrl.rdQLenPdf::17                       0                       # What read queue length does an incoming req see
system.mem_ctrl.rdQLenPdf::18                       0                       # What read queue length does an incoming req see
system.mem_ctrl.rdQLenPdf::19                       0                       # What read queue length does an incoming req see
system.mem_ctrl.rdQLenPdf::20                       0                       # What read queue length does an incoming req see
system.mem_ctrl.rdQLenPdf::21                       0                       # What read queue length does an incoming req see
system.mem_ctrl.rdQLenPdf::22                       0                       # What read queue length does an incoming req see
system.mem_ctrl.rdQLenPdf::23                       0                       # What read queue length does an incoming req see
system.mem_ctrl.rdQLenPdf::24                       0                       # What read queue length does an incoming req see
system.mem_ctrl.rdQLenPdf::25                       0                       # What read queue length does an incoming req see
system.mem_ctrl.rdQLenPdf::26                       0                       # What read queue length does an incoming req see
system.mem_ctrl.rdQLenPdf::27                       0                       # What read queue length does an incoming req see
system.mem_ctrl.rdQLenPdf::28                       0                       # What read queue length does an incoming req see
system.mem_ctrl.rdQLenPdf::29                       0                       # What read queue length does an incoming req see
system.mem_ctrl.rdQLenPdf::30                       0                       # What read queue length does an incoming req see
system.mem_ctrl.rdQLenPdf::31                       0                       # What read queue length does an incoming req see
system.mem_ctrl.wrQLenPdf::0                        1                       # What write queue length does an incoming req see
system.mem_ctrl.wrQLenPdf::1                        1                       # What write queue length does an incoming req see
system.mem_ctrl.wrQLenPdf::2                        1                       # What write queue length does an incoming req see
system.mem_ctrl.wrQLenPdf::3                        1                       # What write queue length does an incoming req see
system.mem_ctrl.wrQLenPdf::4                        1                       # What write queue length does an incoming req see
system.mem_ctrl.wrQLenPdf::5                        1                       # What write queue length does an incoming req see
system.mem_ctrl.wrQLenPdf::6                        1                       # What write queue length does an incoming req see
system.mem_ctrl.wrQLenPdf::7                        1                       # What write queue length does an incoming req see
system.mem_ctrl.wrQLenPdf::8                        1                       # What write queue length does an incoming req see
system.mem_ctrl.wrQLenPdf::9                        1                       # What write queue length does an incoming req see
system.mem_ctrl.wrQLenPdf::10                       1                       # What write queue length does an incoming req see
system.mem_ctrl.wrQLenPdf::11                       1                       # What write queue length does an incoming req see
system.mem_ctrl.wrQLenPdf::12                       1                       # What write queue length does an incoming req see
system.mem_ctrl.wrQLenPdf::13                       1                       # What write queue length does an incoming req see
system.mem_ctrl.wrQLenPdf::14                       1                       # What write queue length does an incoming req see
system.mem_ctrl.wrQLenPdf::15                      15                       # What write queue length does an incoming req see
system.mem_ctrl.wrQLenPdf::16                      15                       # What write queue length does an incoming req see
system.mem_ctrl.wrQLenPdf::17                      18                       # What write queue length does an incoming req see
system.mem_ctrl.wrQLenPdf::18                      18                       # What write queue length does an incoming req see
system.mem_ctrl.wrQLenPdf::19                      18                       # What write queue length does an incoming req see
system.mem_ctrl.wrQLenPdf::20                      18                       # What write queue length does an incoming req see
system.mem_ctrl.wrQLenPdf::21                      18                       # What write queue length does an incoming req see
system.mem_ctrl.wrQLenPdf::22                      18                       # What write queue length does an incoming req see
system.mem_ctrl.wrQLenPdf::23                      18                       # What write queue length does an incoming req see
system.mem_ctrl.wrQLenPdf::24                      18                       # What write queue length does an incoming req see
system.mem_ctrl.wrQLenPdf::25                      17                       # What write queue length does an incoming req see
system.mem_ctrl.wrQLenPdf::26                      17                       # What write queue length does an incoming req see
system.mem_ctrl.wrQLenPdf::27                      17                       # What write queue length does an incoming req see
system.mem_ctrl.wrQLenPdf::28                      17                       # What write queue length does an incoming req see
system.mem_ctrl.wrQLenPdf::29                      17                       # What write queue length does an incoming req see
system.mem_ctrl.wrQLenPdf::30                      17                       # What write queue length does an incoming req see
system.mem_ctrl.wrQLenPdf::31                      17                       # What write queue length does an incoming req see
system.mem_ctrl.wrQLenPdf::32                      17                       # What write queue length does an incoming req see
system.mem_ctrl.wrQLenPdf::33                       0                       # What write queue length does an incoming req see
system.mem_ctrl.wrQLenPdf::34                       0                       # What write queue length does an incoming req see
system.mem_ctrl.wrQLenPdf::35                       0                       # What write queue length does an incoming req see
system.mem_ctrl.wrQLenPdf::36                       0                       # What write queue length does an incoming req see
system.mem_ctrl.wrQLenPdf::37                       0                       # What write queue length does an incoming req see
system.mem_ctrl.wrQLenPdf::38                       0                       # What write queue length does an incoming req see
system.mem_ctrl.wrQLenPdf::39                       0                       # What write queue length does an incoming req see
system.mem_ctrl.wrQLenPdf::40                       0                       # What write queue length does an incoming req see
system.mem_ctrl.wrQLenPdf::41                       0                       # What write queue length does an incoming req see
system.mem_ctrl.wrQLenPdf::42                       0                       # What write queue length does an incoming req see
system.mem_ctrl.wrQLenPdf::43                       0                       # What write queue length does an incoming req see
system.mem_ctrl.wrQLenPdf::44                       0                       # What write queue length does an incoming req see
system.mem_ctrl.wrQLenPdf::45                       0                       # What write queue length does an incoming req see
system.mem_ctrl.wrQLenPdf::46                       0                       # What write queue length does an incoming req see
system.mem_ctrl.wrQLenPdf::47                       0                       # What write queue length does an incoming req see
system.mem_ctrl.wrQLenPdf::48                       0                       # What write queue length does an incoming req see
system.mem_ctrl.wrQLenPdf::49                       0                       # What write queue length does an incoming req see
system.mem_ctrl.wrQLenPdf::50                       0                       # What write queue length does an incoming req see
system.mem_ctrl.wrQLenPdf::51                       0                       # What write queue length does an incoming req see
system.mem_ctrl.wrQLenPdf::52                       0                       # What write queue length does an incoming req see
system.mem_ctrl.wrQLenPdf::53                       0                       # What write queue length does an incoming req see
system.mem_ctrl.wrQLenPdf::54                       0                       # What write queue length does an incoming req see
system.mem_ctrl.wrQLenPdf::55                       0                       # What write queue length does an incoming req see
system.mem_ctrl.wrQLenPdf::56                       0                       # What write queue length does an incoming req see
system.mem_ctrl.wrQLenPdf::57                       0                       # What write queue length does an incoming req see
system.mem_ctrl.wrQLenPdf::58                       0                       # What write queue length does an incoming req see
system.mem_ctrl.wrQLenPdf::59                       0                       # What write queue length does an incoming req see
system.mem_ctrl.wrQLenPdf::60                       0                       # What write queue length does an incoming req see
system.mem_ctrl.wrQLenPdf::61                       0                       # What write queue length does an incoming req see
system.mem_ctrl.wrQLenPdf::62                       0                       # What write queue length does an incoming req see
system.mem_ctrl.wrQLenPdf::63                       0                       # What write queue length does an incoming req see
system.mem_ctrl.bytesPerActivate::samples         2064                       # Bytes accessed per row activation
system.mem_ctrl.bytesPerActivate::mean     184.310078                       # Bytes accessed per row activation
system.mem_ctrl.bytesPerActivate::gmean    136.261830                       # Bytes accessed per row activation
system.mem_ctrl.bytesPerActivate::stdev    174.315377                       # Bytes accessed per row activation
system.mem_ctrl.bytesPerActivate::0-127           784     37.98%     37.98% # Bytes accessed per row activation
system.mem_ctrl.bytesPerActivate::128-255          791     38.32%     76.31% # Bytes accessed per row activation
system.mem_ctrl.bytesPerActivate::256-383          253     12.26%     88.57% # Bytes accessed per row activation
system.mem_ctrl.bytesPerActivate::384-511          112      5.43%     93.99% # Bytes accessed per row activation
system.mem_ctrl.bytesPerActivate::512-639           38      1.84%     95.83% # Bytes accessed per row activation
system.mem_ctrl.bytesPerActivate::640-767           33      1.60%     97.43% # Bytes accessed per row activation
system.mem_ctrl.bytesPerActivate::768-895           22      1.07%     98.50% # Bytes accessed per row activation
system.mem_ctrl.bytesPerActivate::896-1023            9      0.44%     98.93% # Bytes accessed per row activation
system.mem_ctrl.bytesPerActivate::1024-1151           22      1.07%    100.00% # Bytes accessed per row activation
system.mem_ctrl.bytesPerActivate::total          2064                       # Bytes accessed per row activation
system.mem_ctrl.rdPerTurnAround::samples           17                       # Reads before turning the bus around for writes
system.mem_ctrl.rdPerTurnAround::mean      309.764706                       # Reads before turning the bus around for writes
system.mem_ctrl.rdPerTurnAround::gmean     130.142616                       # Reads before turning the bus around for writes
system.mem_ctrl.rdPerTurnAround::stdev     564.354225                       # Reads before turning the bus around for writes
system.mem_ctrl.rdPerTurnAround::0-127             12     70.59%     70.59% # Reads before turning the bus around for writes
system.mem_ctrl.rdPerTurnAround::128-255            1      5.88%     76.47% # Reads before turning the bus around for writes
system.mem_ctrl.rdPerTurnAround::256-383            1      5.88%     82.35% # Reads before turning the bus around for writes
system.mem_ctrl.rdPerTurnAround::384-511            1      5.88%     88.24% # Reads before turning the bus around for writes
system.mem_ctrl.rdPerTurnAround::1024-1151            1      5.88%     94.12% # Reads before turning the bus around for writes
system.mem_ctrl.rdPerTurnAround::2176-2303            1      5.88%    100.00% # Reads before turning the bus around for writes
system.mem_ctrl.rdPerTurnAround::total             17                       # Reads before turning the bus around for writes
system.mem_ctrl.wrPerTurnAround::samples           17                       # Writes before turning the bus around for reads
system.mem_ctrl.wrPerTurnAround::mean       17.647059                       # Writes before turning the bus around for reads
system.mem_ctrl.wrPerTurnAround::gmean      17.629727                       # Writes before turning the bus around for reads
system.mem_ctrl.wrPerTurnAround::stdev       0.785905                       # Writes before turning the bus around for reads
system.mem_ctrl.wrPerTurnAround::16                 3     17.65%     17.65% # Writes before turning the bus around for reads
system.mem_ctrl.wrPerTurnAround::18                14     82.35%    100.00% # Writes before turning the bus around for reads
system.mem_ctrl.wrPerTurnAround::total             17                       # Writes before turning the bus around for reads
system.mem_ctrl.bytesReadDRAM                  361216                       # Total number of bytes read from DRAM
system.mem_ctrl.bytesReadWrQ                     4864                       # Total number of bytes read from write queue
system.mem_ctrl.bytesWritten                    19200                       # Total number of bytes written to DRAM
system.mem_ctrl.bytesReadSys                   366080                       # Total read bytes from the system interface side
system.mem_ctrl.bytesWrittenSys                 25984                       # Total written bytes from the system interface side
system.mem_ctrl.avgRdBW                         88.99                       # Average DRAM read bandwidth in MiByte/s
system.mem_ctrl.avgWrBW                          4.73                       # Average achieved write bandwidth in MiByte/s
system.mem_ctrl.avgRdBWSys                      90.19                       # Average system read bandwidth in MiByte/s
system.mem_ctrl.avgWrBWSys                       6.40                       # Average system write bandwidth in MiByte/s
system.mem_ctrl.peakBW                       12800.00                       # Theoretical peak bandwidth in MiByte/s
system.mem_ctrl.busUtil                          0.73                       # Data bus utilization in percentage
system.mem_ctrl.busUtilRead                      0.70                       # Data bus utilization in percentage for reads
system.mem_ctrl.busUtilWrite                     0.04                       # Data bus utilization in percentage for writes
system.mem_ctrl.totGap                     4056979000                       # Total gap between requests
system.mem_ctrl.avgGap                      662255.79                       # Average gap between requests
system.mem_ctrl.masterReadBytes::.cpu.inst       208768                       # Per-master bytes read from memory
system.mem_ctrl.masterReadBytes::.cpu.data       152448                       # Per-master bytes read from memory
system.mem_ctrl.masterWriteBytes::.writebacks        19200                       # Per-master bytes write to memory
system.mem_ctrl.masterReadRate::.cpu.inst 51434663.160952351987                       # Per-master bytes read from memory rate (Bytes/sec)
system.mem_ctrl.masterReadRate::.cpu.data 37558972.302081085742                       # Per-master bytes read from memory rate (Bytes/sec)
system.mem_ctrl.masterWriteRate::.writebacks 4730349.156433385797                       # Per-master bytes write to memory rate (Bytes/sec)
system.mem_ctrl.masterReadAccesses::.cpu.inst         3262                       # Per-master read serviced memory accesses
system.mem_ctrl.masterReadAccesses::.cpu.data         2458                       # Per-master read serviced memory accesses
system.mem_ctrl.masterWriteAccesses::.writebacks          406                       # Per-master write serviced memory accesses
system.mem_ctrl.masterReadTotalLat::.cpu.inst     92543250                       # Per-master read total memory access latency
system.mem_ctrl.masterReadTotalLat::.cpu.data     68632250                       # Per-master read total memory access latency
system.mem_ctrl.masterWriteTotalLat::.writebacks  67688446000                       # Per-master write total memory access latency
system.mem_ctrl.masterReadAvgLat::.cpu.inst     28370.10                       # Per-master read average memory access latency
system.mem_ctrl.masterReadAvgLat::.cpu.data     27921.99                       # Per-master read average memory access latency
system.mem_ctrl.masterWriteAvgLat::.writebacks 166720310.34                       # Per-master write average memory access latency
system.mem_ctrl.pageHitRate                     65.00                       # Row buffer hit rate, read and write combined
system.mem_ctrl.rank1.actEnergy               9596160                       # Energy for activate commands per rank (pJ)
system.mem_ctrl.rank1.preEnergy               5100480                       # Energy for precharge commands per rank (pJ)
system.mem_ctrl.rank1.readEnergy             24468780                       # Energy for read commands per rank (pJ)
system.mem_ctrl.rank1.writeEnergy              840420                       # Energy for write commands per rank (pJ)
system.mem_ctrl.rank1.refreshEnergy      320227440.000000                       # Energy for refresh commands per rank (pJ)
system.mem_ctrl.rank1.actBackEnergy        1447196370                       # Energy for active background per rank (pJ)
system.mem_ctrl.rank1.preBackEnergy         339924960                       # Energy for precharge background per rank (pJ)
system.mem_ctrl.rank1.actPowerDownEnergy            0                       # Energy for active power-down per rank (pJ)
system.mem_ctrl.rank1.prePowerDownEnergy            0                       # Energy for precharge power-down per rank (pJ)
system.mem_ctrl.rank1.selfRefreshEnergy             0                       # Energy for self refresh per rank (pJ)
system.mem_ctrl.rank1.totalEnergy          2147354610                       # Total energy per rank (pJ)
system.mem_ctrl.rank1.averagePower         529.048806                       # Core power per rank (mW)
system.mem_ctrl.rank1.totalIdleTime                 0                       # Total Idle time Per DRAM Rank
system.mem_ctrl.rank1.memoryStateTime::IDLE    869194250                       # Time in different power states
system.mem_ctrl.rank1.memoryStateTime::REF    135460000                       # Time in different power states
system.mem_ctrl.rank1.memoryStateTime::SREF            0                       # Time in different power states
system.mem_ctrl.rank1.memoryStateTime::PRE_PDN            0                       # Time in different power states
system.mem_ctrl.rank1.memoryStateTime::ACT   3054242750                       # Time in different power states
system.mem_ctrl.rank1.memoryStateTime::ACT_PDN            0                       # Time in different power states
system.mem_ctrl.rank0.actEnergy               5140800                       # Energy for activate commands per rank (pJ)
system.mem_ctrl.rank0.preEnergy               2732400                       # Energy for precharge commands per rank (pJ)
system.mem_ctrl.rank0.readEnergy             15829380                       # Energy for read commands per rank (pJ)
system.mem_ctrl.rank0.writeEnergy              725580                       # Energy for write commands per rank (pJ)
system.mem_ctrl.rank0.refreshEnergy      320227440.000000                       # Energy for refresh commands per rank (pJ)
system.mem_ctrl.rank0.actBackEnergy         739447320                       # Energy for active background per rank (pJ)
system.mem_ctrl.rank0.preBackEnergy         935924160                       # Energy for precharge background per rank (pJ)
system.mem_ctrl.rank0.actPowerDownEnergy            0                       # Energy for active power-down per rank (pJ)
system.mem_ctrl.rank0.prePowerDownEnergy            0                       # Energy for precharge power-down per rank (pJ)
system.mem_ctrl.rank0.selfRefreshEnergy             0                       # Energy for self refresh per rank (pJ)
system.mem_ctrl.rank0.totalEnergy          2020027080                       # Total energy per rank (pJ)
system.mem_ctrl.rank0.averagePower         497.678823                       # Core power per rank (mW)
system.mem_ctrl.rank0.totalIdleTime                 0                       # Total Idle time Per DRAM Rank
system.mem_ctrl.rank0.memoryStateTime::IDLE   2425994000                       # Time in different power states
system.mem_ctrl.rank0.memoryStateTime::REF    135460000                       # Time in different power states
system.mem_ctrl.rank0.memoryStateTime::SREF            0                       # Time in different power states
system.mem_ctrl.rank0.memoryStateTime::PRE_PDN            0                       # Time in different power states
system.mem_ctrl.rank0.memoryStateTime::ACT   1497443000                       # Time in different power states
system.mem_ctrl.rank0.memoryStateTime::ACT_PDN            0                       # Time in different power states
system.mem_ctrl.power_state.pwrStateResidencyTicks::UNDEFINED   4058897000                       # Cumulative time (in ticks) in various power states
system.cache_medium.blocked_cycles::no_mshrs            0                       # number of cycles access was blocked
system.cache_medium.blocked_cycles::no_targets            0                       # number of cycles access was blocked
system.cache_medium.blocked::no_mshrs               0                       # number of cycles access was blocked
system.cache_medium.blocked::no_targets             0                       # number of cycles access was blocked
system.cache_medium.avg_blocked_cycles::no_mshrs          nan                       # average number of cycles each access was blocked
system.cache_medium.avg_blocked_cycles::no_targets          nan                       # average number of cycles each access was blocked
system.cache_medium.replacements                    0                       # number of replacements
system.cache_medium.power_state.pwrStateResidencyTicks::UNDEFINED   4058897000                       # Cumulative time (in ticks) in various power states
system.cache_medium.tags.tagsinuse                  0                       # Cycle average of tags in use
system.cache_medium.tags.total_refs                 0                       # Total number of references to valid blocks.
system.cache_medium.tags.sampled_refs               0                       # Sample count of references to valid blocks.
system.cache_medium.tags.avg_refs                 nan                       # Average number of references to valid blocks.
system.cache_medium.tags.warmup_cycle               0                       # Cycle when the warmup percentage was hit.
system.cache_medium.tags.tag_accesses               0                       # Number of tag accesses
system.cache_medium.tags.data_accesses              0                       # Number of data accesses
system.cache_medium.tags.power_state.pwrStateResidencyTicks::UNDEFINED   4058897000                       # Cumulative time (in ticks) in various power states
system.clk_domain.clock                          1000                       # Clock period in ticks
system.clk_domain.voltage_domain.voltage            1                       # Voltage in Volts
system.dcache.demand_hits::.cpu.data           333739                       # number of demand (read+write) hits
system.dcache.demand_hits::total               333739                       # number of demand (read+write) hits
system.dcache.overall_hits::.cpu.data          333739                       # number of overall hits
system.dcache.overall_hits::total              333739                       # number of overall hits
system.dcache.demand_misses::.cpu.data           7109                       # number of demand (read+write) misses
system.dcache.demand_misses::total               7109                       # number of demand (read+write) misses
system.dcache.overall_misses::.cpu.data          7109                       # number of overall misses
system.dcache.overall_misses::total              7109                       # number of overall misses
system.dcache.demand_miss_latency::.cpu.data    267465000                       # number of demand (read+write) miss cycles
system.dcache.demand_miss_latency::total    267465000                       # number of demand (read+write) miss cycles
system.dcache.overall_miss_latency::.cpu.data    267465000                       # number of overall miss cycles
system.dcache.overall_miss_latency::total    267465000                       # number of overall miss cycles
system.dcache.demand_accesses::.cpu.data       340848                       # number of demand (read+write) accesses
system.dcache.demand_accesses::total           340848                       # number of demand (read+write) accesses
system.dcache.overall_accesses::.cpu.data       340848                       # number of overall (read+write) accesses
system.dcache.overall_accesses::total          340848                       # number of overall (read+write) accesses
system.dcache.demand_miss_rate::.cpu.data     0.020857                       # miss rate for demand accesses
system.dcache.demand_miss_rate::total        0.020857                       # miss rate for demand accesses
system.dcache.overall_miss_rate::.cpu.data     0.020857                       # miss rate for overall accesses
system.dcache.overall_miss_rate::total       0.020857                       # miss rate for overall accesses
system.dcache.demand_avg_miss_latency::.cpu.data 37623.435082                       # average overall miss latency
system.dcache.demand_avg_miss_latency::total 37623.435082                       # average overall miss latency
system.dcache.overall_avg_miss_latency::.cpu.data 37623.435082                       # average overall miss latency
system.dcache.overall_avg_miss_latency::total 37623.435082                       # average overall miss latency
system.dcache.blocked_cycles::no_mshrs              0                       # number of cycles access was blocked
system.dcache.blocked_cycles::no_targets            0                       # number of cycles access was blocked
system.dcache.blocked::no_mshrs                     0                       # number of cycles access was blocked
system.dcache.blocked::no_targets                   0                       # number of cycles access was blocked
system.dcache.avg_blocked_cycles::no_mshrs          nan                       # average number of cycles each access was blocked
system.dcache.avg_blocked_cycles::no_targets          nan                       # average number of cycles each access was blocked
system.dcache.writebacks::.writebacks            3950                       # number of writebacks
system.dcache.writebacks::total                  3950                       # number of writebacks
system.dcache.demand_mshr_misses::.cpu.data         7109                       # number of demand (read+write) MSHR misses
system.dcache.demand_mshr_misses::total          7109                       # number of demand (read+write) MSHR misses
system.dcache.overall_mshr_misses::.cpu.data         7109                       # number of overall MSHR misses
[...]
system.dcache.tags.age_task_id_blocks_1024::0           22                       # Occupied blocks per task id
system.dcache.tags.age_task_id_blocks_1024::1          145                       # Occupied blocks per task id
system.dcache.tags.age_task_id_blocks_1024::2           89                       # Occupied blocks per task id
system.dcache.tags.occ_task_id_percent::1024            1                       # Percentage of cache occupancy per task id
system.dcache.tags.tag_accesses               2090366                       # Number of tag accesses
system.dcache.tags.data_accesses              2090366                       # Number of data accesses
system.dcache.tags.power_state.pwrStateResidencyTicks::UNDEFINED  25628915000                       # Cumulative time (in ticks) in various power states
system.cache_large.blocked_cycles::no_mshrs            0                       # number of cycles access was blocked
system.cache_large.blocked_cycles::no_targets            0                       # number of cycles access was blocked
system.cache_large.blocked::no_mshrs                0                       # number of cycles access was blocked
system.cache_large.blocked::no_targets              0                       # number of cycles access was blocked
system.cache_large.avg_blocked_cycles::no_mshrs          nan                       # average number of cycles each access was blocked
system.cache_large.avg_blocked_cycles::no_targets          nan                       # average number of cycles each access was blocked
system.cache_large.replacements                     0                       # number of replacements
system.cache_large.power_state.pwrStateResidencyTicks::UNDEFINED  25628915000                       # Cumulative time (in ticks) in various power states
system.cache_large.tags.tagsinuse                   0                       # Cycle average of tags in use
system.cache_large.tags.total_refs                  0                       # Total number of references to valid blocks.
system.cache_large.tags.sampled_refs                0                       # Sample count of references to valid blocks.
system.cache_large.tags.avg_refs                  nan                       # Average number of references to valid blocks.
system.cache_large.tags.warmup_cycle                0                       # Cycle when the warmup percentage was hit.
system.cache_large.tags.tag_accesses                0                       # Number of tag accesses
system.cache_large.tags.data_accesses               0                       # Number of data accesses
system.cache_large.tags.power_state.pwrStateResidencyTicks::UNDEFINED  25628915000                       # Cumulative time (in ticks) in various power states
system.l2cache.demand_hits::.cpu.inst            6903                       # number of demand (read+write) hits
system.l2cache.demand_hits::.cpu.data           12352                       # number of demand (read+write) hits
system.l2cache.demand_hits::total               19255                       # number of demand (read+write) hits
system.l2cache.overall_hits::.cpu.inst           6903                       # number of overall hits
system.l2cache.overall_hits::.cpu.data          12352                       # number of overall hits
system.l2cache.overall_hits::total              19255                       # number of overall hits
system.l2cache.demand_misses::.cpu.inst         22272                       # number of demand (read+write) misses
system.l2cache.demand_misses::.cpu.data         43068                       # number of demand (read+write) misses
system.l2cache.demand_misses::total             65340                       # number of demand (read+write) misses
system.l2cache.overall_misses::.cpu.inst        22272                       # number of overall misses
system.l2cache.overall_misses::.cpu.data        43068                       # number of overall misses
system.l2cache.overall_misses::total            65340                       # number of overall misses
system.l2cache.demand_miss_latency::.cpu.inst    611562000                       # number of demand (read+write) miss cycles
system.l2cache.demand_miss_latency::.cpu.data   2447492000                       # number of demand (read+write) miss cycles
system.l2cache.demand_miss_latency::total   3059054000                       # number of demand (read+write) miss cycles
system.l2cache.overall_miss_latency::.cpu.inst    611562000                       # number of overall miss cycles
system.l2cache.overall_miss_latency::.cpu.data   2447492000                       # number of overall miss cycles
system.l2cache.overall_miss_latency::total   3059054000                       # number of overall miss cycles
system.l2cache.demand_accesses::.cpu.inst        29175                       # number of demand (read+write) accesses
system.l2cache.demand_accesses::.cpu.data        55420                       # number of demand (read+write) accesses
system.l2cache.demand_accesses::total           84595                       # number of demand (read+write) accesses
system.l2cache.overall_accesses::.cpu.inst        29175                       # number of overall (read+write) accesses
system.l2cache.overall_accesses::.cpu.data        55420                       # number of overall (read+write) accesses
system.l2cache.overall_accesses::total          84595                       # number of overall (read+write) accesses
system.l2cache.demand_miss_rate::.cpu.inst     0.763393                       # miss rate for demand accesses
system.l2cache.demand_miss_rate::.cpu.data     0.777120                       # miss rate for demand accesses
system.l2cache.demand_miss_rate::total       0.772386                       # miss rate for demand accesses
system.l2cache.overall_miss_rate::.cpu.inst     0.763393                       # miss rate for overall accesses
system.l2cache.overall_miss_rate::.cpu.data     0.777120                       # miss rate for overall accesses
system.l2cache.overall_miss_rate::total      0.772386                       # miss rate for overall accesses
system.l2cache.demand_avg_miss_latency::.cpu.inst 27458.782328                       # average overall miss latency
system.l2cache.demand_avg_miss_latency::.cpu.data 56828.550200                       # average overall miss latency
system.l2cache.demand_avg_miss_latency::total 46817.477808                       # average overall miss latency
system.l2cache.overall_avg_miss_latency::.cpu.inst 27458.782328                       # average overall miss latency
system.l2cache.overall_avg_miss_latency::.cpu.data 56828.550200                       # average overall miss latency
system.l2cache.overall_avg_miss_latency::total 46817.477808                       # average overall miss latency
system.l2cache.blocked_cycles::no_mshrs             0                       # number of cycles access was blocked
system.l2cache.blocked_cycles::no_targets            0                       # number of cycles access was blocked
system.l2cache.blocked::no_mshrs                    0                       # number of cycles access was blocked
system.l2cache.blocked::no_targets                  0                       # number of cycles access was blocked
system.l2cache.avg_blocked_cycles::no_mshrs          nan                       # average number of cycles each access was blocked
system.l2cache.avg_blocked_cycles::no_targets          nan                       # average number of cycles each access was blocked
system.l2cache.writebacks::.writebacks          11937                       # number of writebacks
system.l2cache.writebacks::total                11937                       # number of writebacks
system.l2cache.demand_mshr_misses::.cpu.inst        22272                       # number of demand (read+write) MSHR misses
system.l2cache.demand_mshr_misses::.cpu.data        43068                       # number of demand (read+write) MSHR misses
system.l2cache.demand_mshr_misses::total        65340                       # number of demand (read+write) MSHR misses
system.l2cache.overall_mshr_misses::.cpu.inst        22272                       # number of overall MSHR misses
system.l2cache.overall_mshr_misses::.cpu.data        43068                       # number of overall MSHR misses
system.l2cache.overall_mshr_misses::total        65340                       # number of overall MSHR misses
system.l2cache.demand_mshr_miss_latency::.cpu.inst    567018000                       # number of demand (read+write) MSHR miss cycles
system.l2cache.demand_mshr_miss_latency::.cpu.data   2361356000                       # number of demand (read+write) MSHR miss cycles
system.l2cache.demand_mshr_miss_latency::total   2928374000                       # number of demand (read+write) MSHR miss cycles
system.l2cache.overall_mshr_miss_latency::.cpu.inst    567018000                       # number of overall MSHR miss cycles
system.l2cache.overall_mshr_miss_latency::.cpu.data   2361356000                       # number of overall MSHR miss cycles
system.l2cache.overall_mshr_miss_latency::total   2928374000                       # number of overall MSHR miss cycles
system.l2cache.demand_mshr_miss_rate::.cpu.inst     0.763393                       # mshr miss rate for demand accesses
system.l2cache.demand_mshr_miss_rate::.cpu.data     0.777120                       # mshr miss rate for demand accesses
system.l2cache.demand_mshr_miss_rate::total     0.772386                       # mshr miss rate for demand accesses
system.l2cache.overall_mshr_miss_rate::.cpu.inst     0.763393                       # mshr miss rate for overall accesses
system.l2cache.overall_mshr_miss_rate::.cpu.data     0.777120                       # mshr miss rate for overall accesses
system.l2cache.overall_mshr_miss_rate::total     0.772386                       # mshr miss rate for overall accesses
system.l2cache.demand_avg_mshr_miss_latency::.cpu.inst 25458.782328                       # average overall mshr miss latency
system.l2cache.demand_avg_mshr_miss_latency::.cpu.data 54828.550200                       # average overall mshr miss latency
system.l2cache.demand_avg_mshr_miss_latency::total 44817.477808                       # average overall mshr miss latency
system.l2cache.overall_avg_mshr_miss_latency::.cpu.inst 25458.782328                       # average overall mshr miss latency
system.l2cache.overall_avg_mshr_miss_latency::.cpu.data 54828.550200                       # average overall mshr miss latency
system.l2cache.overall_avg_mshr_miss_latency::total 44817.477808                       # average overall mshr miss latency
system.l2cache.replacements                     73527                       # number of replacements
system.l2cache.ReadReq_hits::.cpu.inst           6903                       # number of ReadReq hits
system.l2cache.ReadReq_hits::.cpu.data          12352                       # number of ReadReq hits
system.l2cache.ReadReq_hits::total              19255                       # number of ReadReq hits
system.l2cache.ReadReq_misses::.cpu.inst        22272                       # number of ReadReq misses
system.l2cache.ReadReq_misses::.cpu.data        43068                       # number of ReadReq misses
system.l2cache.ReadReq_misses::total            65340                       # number of ReadReq misses
system.l2cache.ReadReq_miss_latency::.cpu.inst    611562000                       # number of ReadReq miss cycles
system.l2cache.ReadReq_miss_latency::.cpu.data   2447492000                       # number of ReadReq miss cycles
system.l2cache.ReadReq_miss_latency::total   3059054000                       # number of ReadReq miss cycles
system.l2cache.ReadReq_accesses::.cpu.inst        29175                       # number of ReadReq accesses(hits+misses)
system.l2cache.ReadReq_accesses::.cpu.data        55420                       # number of ReadReq accesses(hits+misses)
system.l2cache.ReadReq_accesses::total          84595                       # number of ReadReq accesses(hits+misses)
system.l2cache.ReadReq_miss_rate::.cpu.inst     0.763393                       # miss rate for ReadReq accesses
system.l2cache.ReadReq_miss_rate::.cpu.data     0.777120                       # miss rate for ReadReq accesses
system.l2cache.ReadReq_miss_rate::total      0.772386                       # miss rate for ReadReq accesses
system.l2cache.ReadReq_avg_miss_latency::.cpu.inst 27458.782328                       # average ReadReq miss latency
system.l2cache.ReadReq_avg_miss_latency::.cpu.data 56828.550200                       # average ReadReq miss latency
system.l2cache.ReadReq_avg_miss_latency::total 46817.477808                       # average ReadReq miss latency
system.l2cache.ReadReq_mshr_misses::.cpu.inst        22272                       # number of ReadReq MSHR misses
system.l2cache.ReadReq_mshr_misses::.cpu.data        43068                       # number of ReadReq MSHR misses
system.l2cache.ReadReq_mshr_misses::total        65340                       # number of ReadReq MSHR misses
system.l2cache.ReadReq_mshr_miss_latency::.cpu.inst    567018000                       # number of ReadReq MSHR miss cycles
system.l2cache.ReadReq_mshr_miss_latency::.cpu.data   2361356000                       # number of ReadReq MSHR miss cycles
system.l2cache.ReadReq_mshr_miss_latency::total   2928374000                       # number of ReadReq MSHR miss cycles
system.l2cache.ReadReq_mshr_miss_rate::.cpu.inst     0.763393                       # mshr miss rate for ReadReq accesses
system.l2cache.ReadReq_mshr_miss_rate::.cpu.data     0.777120                       # mshr miss rate for ReadReq accesses
system.l2cache.ReadReq_mshr_miss_rate::total     0.772386                       # mshr miss rate for ReadReq accesses
system.l2cache.ReadReq_avg_mshr_miss_latency::.cpu.inst 25458.782328                       # average ReadReq mshr miss latency
system.l2cache.ReadReq_avg_mshr_miss_latency::.cpu.data 54828.550200                       # average ReadReq mshr miss latency
system.l2cache.ReadReq_avg_mshr_miss_latency::total 44817.477808                       # average ReadReq mshr miss latency
system.l2cache.WritebackDirty_hits::.writebacks        15469                       # number of WritebackDirty hits
system.l2cache.WritebackDirty_hits::total        15469                       # number of WritebackDirty hits
system.l2cache.WritebackDirty_accesses::.writebacks        15469                       # number of WritebackDirty accesses(hits+misses)
system.l2cache.WritebackDirty_accesses::total        15469                       # number of WritebackDirty accesses(hits+misses)
system.l2cache.power_state.pwrStateResidencyTicks::UNDEFINED  25628915000                       # Cumulative time (in ticks) in various power states
system.l2cache.tags.tagsinuse              510.093656                       # Cycle average of tags in use
system.l2cache.tags.total_refs                 100064                       # Total number of references to valid blocks.
system.l2cache.tags.sampled_refs                74039                       # Sample count of references to valid blocks.
system.l2cache.tags.avg_refs                 1.351504                       # Average number of references to valid blocks.
system.l2cache.tags.warmup_cycle                78000                       # Cycle when the warmup percentage was hit.
system.l2cache.tags.occ_blocks::.writebacks    68.084310                       # Average occupied blocks per requestor
system.l2cache.tags.occ_blocks::.cpu.inst    50.631253                       # Average occupied blocks per requestor
system.l2cache.tags.occ_blocks::.cpu.data   391.378093                       # Average occupied blocks per requestor
system.l2cache.tags.occ_percent::.writebacks     0.132977                       # Average percentage of cache occupancy
system.l2cache.tags.occ_percent::.cpu.inst     0.098889                       # Average percentage of cache occupancy
system.l2cache.tags.occ_percent::.cpu.data     0.764410                       # Average percentage of cache occupancy
system.l2cache.tags.occ_percent::total       0.996277                       # Average percentage of cache occupancy
system.l2cache.tags.occ_task_id_blocks::1024          512                       # Occupied blocks per task id
system.l2cache.tags.age_task_id_blocks_1024::0           22                       # Occupied blocks per task id
system.l2cache.tags.age_task_id_blocks_1024::1          176                       # Occupied blocks per task id
system.l2cache.tags.age_task_id_blocks_1024::2          314                       # Occupied blocks per task id
system.l2cache.tags.occ_task_id_percent::1024            1                       # Percentage of cache occupancy per task id
system.l2cache.tags.tag_accesses               174103                       # Number of tag accesses
system.l2cache.tags.data_accesses              174103                       # Number of data accesses
system.l2cache.tags.power_state.pwrStateResidencyTicks::UNDEFINED  25628915000                       # Cumulative time (in ticks) in various power states
system.l2bar.trans_dist::ReadReq                84595                       # Transaction distribution
system.l2bar.trans_dist::ReadResp               84595                       # Transaction distribution
system.l2bar.trans_dist::WritebackDirty         15469                       # Transaction distribution
system.l2bar.pkt_count_system.dcache.mem_side::system.l2cache.cpu_side       126309                       # Packet count per connected master and slave (bytes)
system.l2bar.pkt_count_system.icache.mem_side::system.l2cache.cpu_side        58350                       # Packet count per connected master and slave (bytes)
system.l2bar.pkt_count::total                  184659                       # Packet count per connected master and slave (bytes)
system.l2bar.pkt_size_system.dcache.mem_side::system.l2cache.cpu_side      4536896                       # Cumulative packet size per connected master and slave (bytes)
system.l2bar.pkt_size_system.icache.mem_side::system.l2cache.cpu_side      1867200                       # Cumulative packet size per connected master and slave (bytes)
system.l2bar.pkt_size::total                  6404096                       # Cumulative packet size per connected master and slave (bytes)
system.l2bar.respLayer1.occupancy           145875000                       # Layer occupancy (ticks)
system.l2bar.respLayer1.utilization               0.6                       # Layer utilization (%)
system.l2bar.reqLayer0.occupancy            161940000                       # Layer occupancy (ticks)
system.l2bar.reqLayer0.utilization                0.6                       # Layer utilization (%)
system.l2bar.respLayer0.occupancy           277100000                       # Layer occupancy (ticks)
system.l2bar.respLayer0.utilization               1.1                       # Layer utilization (%)
system.l2bar.power_state.pwrStateResidencyTicks::UNDEFINED  25628915000                       # Cumulative time (in ticks) in various power states
system.cpu.dtb.walker.power_state.pwrStateResidencyTicks::UNDEFINED  25628915000                       # Cumulative time (in ticks) in various power states
system.cpu.interrupts.clk_domain.clock          16000                       # Clock period in ticks
system.cpu.itb.walker.power_state.pwrStateResidencyTicks::UNDEFINED  25628915000                       # Cumulative time (in ticks) in various power states
system.cpu.power_state.numTransitions               1                       # Number of power state transitions
system.cpu.power_state.pwrStateResidencyTicks::ON  25628915000                       # Cumulative time (in ticks) in various power states

---------- End Simulation Statistics   ----------
