
---------- Begin Simulation Statistics ----------
final_tick                                 4447826000                       # Number of ticks from beginning of simulation (restored from checkpoints and never reset)
host_inst_rate                                 256213                       # Simulator instruction rate (inst/s)
host_mem_usage                                1339012                       # Number of bytes of host memory used
host_op_rate                                   486255                       # Simulator op (including micro ops) rate (op/s)
host_seconds                                     3.90                       # Real time elapsed on the host
host_tick_rate                             1139500340                       # Simulator tick rate (ticks/s)
sim_freq                                 1000000000000                       # Frequency of simulated ticks
sim_insts                                     1000024                       # Number of instructions simulated
sim_ops                                       1897984                       # Number of ops (including micro ops) simulated
sim_seconds                                  0.004448                       # Number of seconds simulated
sim_ticks                                  4447826000                       # Number of ticks simulated
system.cpu.Branches                            223657                       # Number of branches fetched
system.cpu.committedInsts                     1000024                       # Number of instructions committed
system.cpu.committedOps                       1897984                       # Number of ops (including micro ops) committed
system.cpu.dtb.rdAccesses                      224662                       # TLB accesses on read requests
system.cpu.dtb.rdMisses                            81                       # TLB misses on read requests
system.cpu.dtb.wrAccesses                      144211                       # TLB accesses on write requests
system.cpu.dtb.wrMisses                            45                       # TLB misses on write requests
system.cpu.idle_fraction                            0                       # Percentage of idle cycles
system.cpu.itb.rdAccesses                           0                       # TLB accesses on read requests
system.cpu.itb.rdMisses                             0                       # TLB misses on read requests
system.cpu.itb.wrAccesses                     1309643                       # TLB accesses on write requests
system.cpu.itb.wrMisses                           177                       # TLB misses on write requests
system.cpu.not_idle_fraction                        1                       # Percentage of non-idle cycles
system.cpu.numCycles                          4447815                       # number of cpu cycles simulated
system.cpu.numWorkItemsCompleted                    0                       # number of work items this cpu completed
system.cpu.numWorkItemsStarted                      0                       # number of work items this cpu started
system.cpu.num_busy_cycles                    4447815                       # Number of busy cycles
system.cpu.num_cc_register_reads              1153911                       # number of times the CC registers were read
system.cpu.num_cc_register_writes              616673                       # number of times the CC registers were written
system.cpu.num_conditional_control_insts       165985                       # number of instructions that are conditional controls
system.cpu.num_fp_alu_accesses                  24024                       # Number of float alu accesses
system.cpu.num_fp_insts                         24024                       # number of float instructions
system.cpu.num_fp_register_reads                38683                       # number of times the floating registers were read
system.cpu.num_fp_register_writes               19045                       # number of times the floating registers were written
system.cpu.num_func_calls                       38890                       # number of times a function call or return occured
system.cpu.num_idle_cycles                          0                       # Number of idle cycles
system.cpu.num_int_alu_accesses               1874791                       # Number of integer alu accesses
system.cpu.num_int_insts                      1874791                       # number of integer instructions
system.cpu.num_int_register_reads             3674306                       # number of times the integer registers were read
system.cpu.num_int_register_writes            1506926                       # number of times the integer registers were written
system.cpu.num_load_insts                      224364                       # Number of load instructions
system.cpu.num_mem_refs                        368510                       # number of memory refs
system.cpu.num_store_insts                     144146                       # Number of store instructions
system.cpu.num_vec_alu_accesses                     0                       # Number of vector alu accesses
system.cpu.num_vec_insts                            0                       # number of vector instructions
system.cpu.num_vec_register_reads                   0                       # number of times the vector registers were read
system.cpu.num_vec_register_writes                  0                       # number of times the vector registers were written
system.cpu.op_class::No_OpClass                  7478      0.39%      0.39% # Class of executed instruction
system.cpu.op_class::IntAlu                   1502910     79.18%     79.58% # Class of executed instruction
system.cpu.op_class::IntMult                      314      0.02%     79.59% # Class of executed instruction
system.cpu.op_class::IntDiv                       217      0.01%     79.61% # Class of executed instruction
system.cpu.op_class::FloatAdd                      77      0.00%     79.61% # Class of executed instruction
system.cpu.op_class::FloatCmp                       0      0.00%     79.61% # Class of executed instruction
system.cpu.op_class::FloatCvt                       0      0.00%     79.61% # Class of executed instruction
system.cpu.op_class::FloatMult                      0      0.00%     79.61% # Class of executed instruction
system.cpu.op_class::FloatMultAcc                   0      0.00%     79.61% # Class of executed instruction
system.cpu.op_class::FloatDiv                       0      0.00%     79.61% # Class of executed instruction
system.cpu.op_class::FloatMisc                      0      0.00%     79.61% # Class of executed instruction
system.cpu.op_class::FloatSqrt                      0      0.00%     79.61% # Class of executed instruction
system.cpu.op_class::SimdAdd                       16      0.00%     79.61% # Class of executed instruction
system.cpu.op_class::SimdAddAcc                     0      0.00%     79.61% # Class of executed instruction
system.cpu.op_class::SimdAlu                     9070      0.48%     80.09% # Class of executed instruction
system.cpu.op_class::SimdCmp                      138      0.01%     80.10% # Class of executed instruction
system.cpu.op_class::SimdCvt                     4544      0.24%     80.34% # Class of executed instruction
system.cpu.op_class::SimdMisc                    4704      0.25%     80.58% # Class of executed instruction
system.cpu.op_class::SimdMult                       0      0.00%     80.58% # Class of executed instruction
system.cpu.op_class::SimdMultAcc                    0      0.00%     80.58% # Class of executed instruction
system.cpu.op_class::SimdShift                      0      0.00%     80.58% # Class of executed instruction
system.cpu.op_class::SimdShiftAcc                   0      0.00%     80.58% # Class of executed instruction
system.cpu.op_class::SimdDiv                        0      0.00%     80.58% # Class of executed instruction
system.cpu.op_class::SimdSqrt                       0      0.00%     80.58% # Class of executed instruction
system.cpu.op_class::SimdFloatAdd                   0      0.00%     80.58% # Class of executed instruction
system.cpu.op_class::SimdFloatAlu                   0      0.00%     80.58% # Class of executed instruction
system.cpu.op_class::SimdFloatCmp                   0      0.00%     80.58% # Class of executed instruction
system.cpu.op_class::SimdFloatCvt                  21      0.00%     80.58% # Class of executed instruction
system.cpu.op_class::SimdFloatDiv                   0      0.00%     80.58% # Class of executed instruction
system.cpu.op_class::SimdFloatMisc                  0      0.00%     80.58% # Class of executed instruction
system.cpu.op_class::SimdFloatMult                  0      0.00%     80.58% # Class of executed instruction
system.cpu.op_class::SimdFloatMultAcc               0      0.00%     80.58% # Class of executed instruction
system.cpu.op_class::SimdFloatSqrt                  0      0.00%     80.58% # Class of executed instruction
system.cpu.op_class::SimdReduceAdd                  0      0.00%     80.58% # Class of executed instruction
system.cpu.op_class::SimdReduceAlu                  0      0.00%     80.58% # Class of executed instruction
system.cpu.op_class::SimdReduceCmp                  0      0.00%     80.58% # Class of executed instruction
system.cpu.op_class::SimdFloatReduceAdd             0      0.00%     80.58% # Class of executed instruction
system.cpu.op_class::SimdFloatReduceCmp             0      0.00%     80.58% # Class of executed instruction
system.cpu.op_class::SimdAes                        0      0.00%     80.58% # Class of executed instruction
system.cpu.op_class::SimdAesMix                     0      0.00%     80.58% # Class of executed instruction
system.cpu.op_class::SimdSha1Hash                   0      0.00%     80.58% # Class of executed instruction
system.cpu.op_class::SimdSha1Hash2                  0      0.00%     80.58% # Class of executed instruction
system.cpu.op_class::SimdSha256Hash                 0      0.00%     80.58% # Class of executed instruction
system.cpu.op_class::SimdSha256Hash2                0      0.00%     80.58% # Class of executed instruction
system.cpu.op_class::SimdShaSigma2                  0      0.00%     80.58% # Class of executed instruction
system.cpu.op_class::SimdShaSigma3                  0      0.00%     80.58% # Class of executed instruction
system.cpu.op_class::SimdPredAlu                    0      0.00%     80.58% # Class of executed instruction
system.cpu.op_class::MemRead                   219921     11.59%     92.17% # Class of executed instruction
system.cpu.op_class::MemWrite                  143441      7.56%     99.73% # Class of executed instruction
system.cpu.op_class::FloatMemRead                4443      0.23%     99.96% # Class of executed instruction
system.cpu.op_class::FloatMemWrite                705      0.04%    100.00% # Class of executed instruction
system.cpu.op_class::IprAccess                      0      0.00%    100.00% # Class of executed instruction
system.cpu.op_class::InstPrefetch                   0      0.00%    100.00% # Class of executed instruction
system.cpu.op_class::total                    1897999                       # Class of executed instruction
system.cpu.workload.numSyscalls                    29                       # Number of system calls
system.dynamic_cache.flushTicks                     0                       # Ticks taken to flush
system.dynamic_cache.numFlushes                     0                       # Number of Flushes Taken
system.cache_small.blocked_cycles::no_mshrs            0                       # number of cycles access was blocked
system.cache_small.blocked_cycles::no_targets            0                       # number of cycles access was blocked
system.cache_small.blocked::no_mshrs                0                       # number of cycles access was blocked
system.cache_small.blocked::no_targets              0                       # number of cycles access was blocked
system.cache_small.avg_blocked_cycles::no_mshrs          nan                       # average number of cycles each access was blocked
system.cache_small.avg_blocked_cycles::no_targets          nan                       # average number of cycles each access was blocked
system.cache_small.replacements                     0                       # number of replacements
system.cache_small.power_state.pwrStateResidencyTicks::UNDEFINED   4447826000                       # Cumulative time (in ticks) in various power states
system.cache_small.tags.tagsinuse                   0                       # Cycle average of tags in use
system.cache_small.tags.total_refs                  0                       # Total number of references to valid blocks.
system.cache_small.tags.sampled_refs                0                       # Sample count of references to valid blocks.
system.cache_small.tags.avg_refs                  nan                       # Average number of references to valid blocks.
system.cache_small.tags.warmup_cycle                0                       # Cycle when the warmup percentage was hit.
system.cache_small.tags.tag_accesses                0                       # Number of tag accesses
system.cache_small.tags.data_accesses               0                       # Number of data accesses
system.cache_small.tags.power_state.pwrStateResidencyTicks::UNDEFINED   4447826000                       # Cumulative time (in ticks) in various power states
system.icache.demand_hits::.cpu.inst          1295667                       # number of demand (read+write) hits
system.icache.demand_hits::total              1295667                       # number of demand (read+write) hits
system.icache.overall_hits::.cpu.inst         1295667                       # number of overall hits
system.icache.overall_hits::total             1295667                       # number of overall hits
system.icache.demand_misses::.cpu.inst          13976                       # number of demand (read+write) misses
system.icache.demand_misses::total              13976                       # number of demand (read+write) misses
system.icache.overall_misses::.cpu.inst         13976                       # number of overall misses
system.icache.overall_misses::total             13976                       # number of overall misses
system.icache.demand_miss_latency::.cpu.inst    763507000                       # number of demand (read+write) miss cycles
system.icache.demand_miss_latency::total    763507000                       # number of demand (read+write) miss cycles
system.icache.overall_miss_latency::.cpu.inst    763507000                       # number of overall miss cycles
system.icache.overall_miss_latency::total    763507000                       # number of overall miss cycles
system.icache.demand_accesses::.cpu.inst      1309643                       # number of demand (read+write) accesses
system.icache.demand_accesses::total          1309643                       # number of demand (read+write) accesses
system.icache.overall_accesses::.cpu.inst      1309643                       # number of overall (read+write) accesses
system.icache.overall_accesses::total         1309643                       # number of overall (read+write) accesses
system.icache.demand_miss_rate::.cpu.inst     0.010672                       # miss rate for demand accesses
system.icache.demand_miss_rate::total        0.010672                       # miss rate for demand accesses
system.icache.overall_miss_rate::.cpu.inst     0.010672                       # miss rate for overall accesses
system.icache.overall_miss_rate::total       0.010672                       # miss rate for overall accesses
system.icache.demand_avg_miss_latency::.cpu.inst 54629.865484                       # average overall miss latency
system.icache.demand_avg_miss_latency::total 54629.865484                       # average overall miss latency
system.icache.overall_avg_miss_latency::.cpu.inst 54629.865484                       # average overall miss latency
system.icache.overall_avg_miss_latency::total 54629.865484                       # average overall miss latency
system.icache.blocked_cycles::no_mshrs              0                       # number of cycles access was blocked
system.icache.blocked_cycles::no_targets            0                       # number of cycles access was blocked
system.icache.blocked::no_mshrs                     0                       # number of cycles access was blocked
system.icache.blocked::no_targets                   0                       # number of cycles access was blocked
system.icache.avg_blocked_cycles::no_mshrs          nan                       # average number of cycles each access was blocked
system.icache.avg_blocked_cycles::no_targets          nan                       # average number of cycles each access was blocked
system.icache.demand_mshr_misses::.cpu.inst        13976                       # number of demand (read+write) MSHR misses
system.icache.demand_mshr_misses::total         13976                       # number of demand (read+write) MSHR misses
system.icache.overall_mshr_misses::.cpu.inst        13976                       # number of overall MSHR misses
system.icache.overall_mshr_misses::total        13976                       # number of overall MSHR misses
system.icache.demand_mshr_miss_latency::.cpu.inst    735555000                       # number of demand (read+write) MSHR miss cycles
system.icache.demand_mshr_miss_latency::total    735555000                       # number of demand (read+write) MSHR miss cycles
system.icache.overall_mshr_miss_latency::.cpu.inst    735555000                       # number of overall MSHR miss cycles
system.icache.overall_mshr_miss_latency::total    735555000                       # number of overall MSHR miss cycles
system.icache.demand_mshr_miss_rate::.cpu.inst     0.010672                       # mshr miss rate for demand accesses
system.icache.demand_mshr_miss_rate::total     0.010672                       # mshr miss rate for demand accesses
system.icache.overall_mshr_miss_rate::.cpu.inst     0.010672                       # mshr miss rate for overall accesses
system.icache.overall_mshr_miss_rate::total     0.010672                       # mshr miss rate for overall accesses
system.icache.demand_avg_mshr_miss_latency::.cpu.inst 52629.865484                       # average overall mshr miss latency
system.icache.demand_avg_mshr_miss_latency::total 52629.865484                       # average overall mshr miss latency
system.icache.overall_avg_mshr_miss_latency::.cpu.inst 52629.865484                       # average overall mshr miss latency
system.icache.overall_avg_mshr_miss_latency::total 52629.865484                       # average overall mshr miss latency
system.icache.replacements                      13720                       # number of replacements
system.icache.ReadReq_hits::.cpu.inst         1295667                       # number of ReadReq hits
system.icache.ReadReq_hits::total             1295667                       # number of ReadReq hits
system.icache.ReadReq_misses::.cpu.inst         13976                       # number of ReadReq misses
system.icache.ReadReq_misses::total             13976                       # number of ReadReq misses
system.icache.ReadReq_miss_latency::.cpu.inst    763507000                       # number of ReadReq miss cycles
system.icache.ReadReq_miss_latency::total    763507000                       # number of ReadReq miss cycles
system.icache.ReadReq_accesses::.cpu.inst      1309643                       # number of ReadReq accesses(hits+misses)
system.icache.ReadReq_accesses::total         1309643                       # number of ReadReq accesses(hits+misses)
system.icache.ReadReq_miss_rate::.cpu.inst     0.010672                       # miss rate for ReadReq accesses
system.icache.ReadReq_miss_rate::total       0.010672                       # miss rate for ReadReq accesses
system.icache.ReadReq_avg_miss_latency::.cpu.inst 54629.865484                       # average ReadReq miss latency
system.icache.ReadReq_avg_miss_latency::total 54629.865484                       # average ReadReq miss latency
system.icache.ReadReq_mshr_misses::.cpu.inst        13976                       # number of ReadReq MSHR misses
system.icache.ReadReq_mshr_misses::total        13976                       # number of ReadReq MSHR misses
system.icache.ReadReq_mshr_miss_latency::.cpu.inst    735555000                       # number of ReadReq MSHR miss cycles
system.icache.ReadReq_mshr_miss_latency::total    735555000                       # number of ReadReq MSHR miss cycles
system.icache.ReadReq_mshr_miss_rate::.cpu.inst     0.010672                       # mshr miss rate for ReadReq accesses
system.icache.ReadReq_mshr_miss_rate::total     0.010672                       # mshr miss rate for ReadReq accesses
system.icache.ReadReq_avg_mshr_miss_latency::.cpu.inst 52629.865484                       # average ReadReq mshr miss latency
system.icache.ReadReq_avg_mshr_miss_latency::total 52629.865484                       # average ReadReq mshr miss latency
system.icache.power_state.pwrStateResidencyTicks::UNDEFINED   4447826000                       # Cumulative time (in ticks) in various power states
system.icache.tags.tagsinuse               252.234160                       # Cycle average of tags in use
system.icache.tags.total_refs                 1213720                       # Total number of references to valid blocks.
system.icache.tags.sampled_refs                 13720                       # Sample count of references to valid blocks.
system.icache.tags.avg_refs                 88.463557                       # Average number of references to valid blocks.
system.icache.tags.warmup_cycle                 80000                       # Cycle when the warmup percentage was hit.
system.icache.tags.occ_blocks::.cpu.inst   252.234160                       # Average occupied blocks per requestor
system.icache.tags.occ_percent::.cpu.inst     0.985290                       # Average percentage of cache occupancy
system.icache.tags.occ_percent::total        0.985290                       # Average percentage of cache occupancy
system.icache.tags.occ_task_id_blocks::1024          256                       # Occupied blocks per task id
system.icache.tags.age_task_id_blocks_1024::0           21                       # Occupied blocks per task id
system.icache.tags.age_task_id_blocks_1024::1          127                       # Occupied blocks per task id
system.icache.tags.age_task_id_blocks_1024::2           51                       # Occupied blocks per task id
system.icache.tags.age_task_id_blocks_1024::3           57                       # Occupied blocks per task id
system.icache.tags.occ_task_id_percent::1024            1                       # Percentage of cache occupancy per task id
system.icache.tags.tag_accesses               1323619                       # Number of tag accesses
system.icache.tags.data_accesses              1323619                       # Number of data accesses
system.icache.tags.power_state.pwrStateResidencyTicks::UNDEFINED   4447826000                       # Cumulative time (in ticks) in various power states
system.membus.trans_dist::ReadReq               12939                       # Transaction distribution
system.membus.trans_dist::ReadResp              12939                       # Transaction distribution
system.membus.trans_dist::WritebackDirty         2729                       # Transaction distribution
system.membus.pkt_count_system.dynamic_cache.mem_side::system.mem_ctrl.port        28607                       # Packet count per connected master and slave (bytes)
system.membus.pkt_count_system.dynamic_cache.mem_side::total        28607                       # Packet count per connected master and slave (bytes)
system.membus.pkt_count::total                  28607                       # Packet count per connected master and slave (bytes)
system.membus.pkt_size_system.dynamic_cache.mem_side::system.mem_ctrl.port      1002752                       # Cumulative packet size per connected master and slave (bytes)
system.membus.pkt_size_system.dynamic_cache.mem_side::total      1002752                       # Cumulative packet size per connected master and slave (bytes)
system.membus.pkt_size::total                 1002752                       # Cumulative packet size per connected master and slave (bytes)
system.membus.reqLayer2.occupancy            26584000                       # Layer occupancy (ticks)
system.membus.reqLayer2.utilization               0.6                       # Layer utilization (%)
system.membus.respLayer0.occupancy           69220000                       # Layer occupancy (ticks)
system.membus.respLayer0.utilization              1.6                       # Layer utilization (%)
system.membus.power_state.pwrStateResidencyTicks::UNDEFINED   4447826000                       # Cumulative time (in ticks) in various power states
system.mem_ctrl.bytes_read::.cpu.inst          590784                       # Number of bytes read from this memory
system.mem_ctrl.bytes_read::.cpu.data          237312                       # Number of bytes read from this memory
system.mem_ctrl.bytes_read::total              828096                       # Number of bytes read from this memory
system.mem_ctrl.bytes_inst_read::.cpu.inst       590784                       # Number of instructions bytes read from this memory
system.mem_ctrl.bytes_inst_read::total         590784                       # Number of instructions bytes read from this memory
system.mem_ctrl.bytes_written::.writebacks       174656                       # Number of bytes written to this memory
system.mem_ctrl.bytes_written::total           174656                       # Number of bytes written to this memory
system.mem_ctrl.num_reads::.cpu.inst             9231                       # Number of read requests responded to by this memory
system.mem_ctrl.num_reads::.cpu.data             3708                       # Number of read requests responded to by this memory
system.mem_ctrl.num_reads::total                12939                       # Number of read requests responded to by this memory
system.mem_ctrl.num_writes::.writebacks          2729                       # Number of write requests responded to by this memory
system.mem_ctrl.num_writes::total                2729                       # Number of write requests responded to by this memory
system.mem_ctrl.bw_read::.cpu.inst          132825340                       # Total read bandwidth from this memory (bytes/s)
system.mem_ctrl.bw_read::.cpu.data           53354605                       # Total read bandwidth from this memory (bytes/s)
system.mem_ctrl.bw_read::total              186179945                       # Total read bandwidth from this memory (bytes/s)
system.mem_ctrl.bw_inst_read::.cpu.inst     132825340                       # Instruction read bandwidth from this memory (bytes/s)
system.mem_ctrl.bw_inst_read::total         132825340                       # Instruction read bandwidth from this memory (bytes/s)
system.mem_ctrl.bw_write::.writebacks        39267723                       # Write bandwidth from this memory (bytes/s)
system.mem_ctrl.bw_write::total              39267723                       # Write bandwidth from this memory (bytes/s)
system.mem_ctrl.bw_total::.writebacks        39267723                       # Total bandwidth to/from this memory (bytes/s)
system.mem_ctrl.bw_total::.cpu.inst         132825340                       # Total bandwidth to/from this memory (bytes/s)
system.mem_ctrl.bw_total::.cpu.data          53354605                       # Total bandwidth to/from this memory (bytes/s)
system.mem_ctrl.bw_total::total             225447668                       # Total bandwidth to/from this memory (bytes/s)
system.mem_ctrl.avgPriority_.writebacks::samples      1818.00                       # Average QoS priority value for accepted requests
system.mem_ctrl.avgPriority_.cpu.inst::samples      9231.00                       # Average QoS priority value for accepted requests
system.mem_ctrl.avgPriority_.cpu.data::samples      3194.00                       # Average QoS priority value for accepted requests
system.mem_ctrl.priorityMinLatency       0.000000018750                       # per QoS priority minimum request to response latency (s)
system.mem_ctrl.priorityMaxLatency       0.000645774500                       # per QoS priority maximum request to response latency (s)
system.mem_ctrl.numReadWriteTurnArounds           104                       # Number of turnarounds from READ to WRITE
system.mem_ctrl.numWriteReadTurnArounds           104                       # Number of turnarounds from WRITE to READ
system.mem_ctrl.numStayReadState                28668                       # Number of times bus staying in READ state
system.mem_ctrl.numStayWriteState                1696                       # Number of times bus staying in WRITE state
system.mem_ctrl.readReqs                        12939                       # Number of read requests accepted
system.mem_ctrl.writeReqs                        2729                       # Number of write requests accepted
system.mem_ctrl.readBursts                      12939                       # Number of DRAM read bursts, including those serviced by the write queue
system.mem_ctrl.writeBursts                      2729                       # Number of DRAM write bursts, including those merged in the write queue
system.mem_ctrl.servicedByWrQ                     514                       # Number of DRAM read bursts serviced by the write queue
system.mem_ctrl.mergedWrBursts                    911                       # Number of DRAM write bursts merged with an existing one
system.mem_ctrl.neitherReadNorWriteReqs             0                       # Number of requests that are neither read nor write
system.mem_ctrl.perBankRdBursts::0               1813                       # Per bank write bursts
system.mem_ctrl.perBankRdBursts::1               1234                       # Per bank write bursts
system.mem_ctrl.perBankRdBursts::2               1301                       # Per bank write bursts
system.mem_ctrl.perBankRdBursts::3                933                       # Per bank write bursts
system.mem_ctrl.perBankRdBursts::4               1843                       # Per bank write bursts
system.mem_ctrl.perBankRdBursts::5                664                       # Per bank write bursts
system.mem_ctrl.perBankRdBursts::6                375                       # Per bank write bursts
system.mem_ctrl.perBankRdBursts::7                493                       # Per bank write bursts
system.mem_ctrl.perBankRdBursts::8                513                       # Per bank write bursts
system.mem_ctrl.perBankRdBursts::9                366                       # Per bank write bursts
system.mem_ctrl.perBankRdBursts::10               555                       # Per bank write bursts
system.mem_ctrl.perBankRdBursts::11               898                       # Per bank write bursts
system.mem_ctrl.perBankRdBursts::12               322                       # Per bank write bursts
system.mem_ctrl.perBankRdBursts::13                75                       # Per bank write bursts
system.mem_ctrl.perBankRdBursts::14               281                       # Per bank write bursts
system.mem_ctrl.perBankRdBursts::15               759                       # Per bank write bursts
system.mem_ctrl.perBankWrBursts::0                283                       # Per bank write bursts
system.mem_ctrl.perBankWrBursts::1                 11                       # Per bank write bursts
system.mem_ctrl.perBankWrBursts::2                 66                       # Per bank write bursts
system.mem_ctrl.perBankWrBursts::3                129                       # Per bank write bursts
system.mem_ctrl.perBankWrBursts::4                113                       # Per bank write bursts
system.mem_ctrl.perBankWrBursts::5                 65                       # Per bank write bursts
system.mem_ctrl.perBankWrBursts::6                140                       # Per bank write bursts
system.mem_ctrl.perBankWrBursts::7                134                       # Per bank write bursts
system.mem_ctrl.perBankWrBursts::8                246                       # Per bank write bursts
system.mem_ctrl.perBankWrBursts::9                 65                       # Per bank write bursts
system.mem_ctrl.perBankWrBursts::10               249                       # Per bank write bursts
system.mem_ctrl.perBankWrBursts::11               154                       # Per bank write bursts
system.mem_ctrl.perBankWrBursts::12               102                       # Per bank write bursts
system.mem_ctrl.perBankWrBursts::13                 0                       # Per bank write bursts
system.mem_ctrl.perBankWrBursts::14                22                       # Per bank write bursts
system.mem_ctrl.perBankWrBursts::15                19                       # Per bank write bursts
system.mem_ctrl.avgRdQLen                        1.00                       # Average read queue length when enqueuing
system.mem_ctrl.avgWrQLen                       24.47                       # Average write queue length when enqueuing
system.mem_ctrl.totQLat                     130361250                       # Total ticks spent queuing
system.mem_ctrl.totBusLat                    62125000                       # Total ticks spent in databus transfers
system.mem_ctrl.totMemAccLat                363330000                       # Total ticks spent from burst creation until serviced by the DRAM
system.mem_ctrl.avgQLat                      10491.85                       # Average queueing delay per DRAM burst
system.mem_ctrl.avgBusLat                     5000.00                       # Average bus latency per DRAM burst
system.mem_ctrl.avgMemAccLat                 29241.85                       # Average memory access latency per DRAM burst
system.mem_ctrl.numRdRetry                          0                       # Number of times read queue was full causing retry
system.mem_ctrl.numWrRetry                          0                       # Number of times write queue was full causing retry
system.mem_ctrl.readRowHits                      7911                       # Number of row buffer hits during reads
system.mem_ctrl.writeRowHits                     1474                       # Number of row buffer hits during writes
system.mem_ctrl.readRowHitRate                  63.67                       # Row buffer hit rate for reads
system.mem_ctrl.writeRowHitRate                 81.08                       # Row buffer hit rate for writes
system.mem_ctrl.readPktSize::0                      0                       # Read request sizes (log2)
system.mem_ctrl.readPktSize::1                      0                       # Read request sizes (log2)
system.mem_ctrl.readPktSize::2                      0                       # Read request sizes (log2)
system.mem_ctrl.readPktSize::3                      0                       # Read request sizes (log2)
system.mem_ctrl.readPktSize::4                      0                       # Read request sizes (log2)
system.mem_ctrl.readPktSize::5                      0                       # Read request sizes (log2)
system.mem_ctrl.readPktSize::6                  12939                       # Read request sizes (log2)
system.mem_ctrl.writePktSize::0                     0                       # Write request sizes (log2)
system.mem_ctrl.writePktSize::1                     0                       # Write request sizes (log2)
system.mem_ctrl.writePktSize::2                     0                       # Write request sizes (log2)
system.mem_ctrl.writePktSize::3                     0                       # Write request sizes (log2)
system.mem_ctrl.writePktSize::4                     0                       # Write request sizes (log2)
system.mem_ctrl.writePktSize::5                     0                       # Write request sizes (log2)
system.mem_ctrl.writePktSize::6                  2729                       # Write request sizes (log2)
system.mem_ctrl.rdQLenPdf::0                    12412                       # What read queue length does an incoming req see
system.mem_ctrl.rdQLenPdf::1                       13                       # What read queue length does an incoming req see
system.mem_ctrl.rdQLenPdf::2                        0                       # What read queue length does an incoming req see
system.mem_ctrl.rdQLenPdf::3                        0                       # What read queue length does an incoming req see
system.mem_ctrl.rdQLenPdf::4                        0                       # What read queue length does an incoming req see
system.mem_ctrl.rdQLenPdf::5                        0                       # What read queue length does an incoming req see
system.mem_ctrl.rdQLenPdf::6                        0                       # What read queue length does an incoming req see
system.mem_ctrl.rdQLenPdf::7                        0                       # What read queue length does an incoming req see
system.mem_ctrl.rdQLenPdf::8                        0                       # What read queue length does an incoming req see
system.mem_ctrl.rdQLenPdf::9                        0                       # What read queue length does an incoming req see
system.mem_ctrl.rdQLenPdf::10                       0                       # What read queue length does an incoming req see
system.mem_ctrl.rdQLenPdf::11                       0                       # What read queue length does an incoming req see
system.mem_ctrl.rdQLenPdf::12                       0                       # What read queue length does an incoming req see
system.mem_ctrl.rdQLenPdf::13                       0                       # What read queue length does an incoming req see
system.mem_ctrl.rdQLenPdf::14                       0                       # What read queue length does an incoming req see
system.mem_ctrl.rdQLenPdf::15                       0                       # What read queue length does an incoming req see
system.mem_ctrl.rdQLenPdf::16                       0                       # What read queue length does an incoming req see
system.mem_ctrl.rdQLenPdf::17                       0                       # What read queue length does an incoming req see
system.mem_ctrl.rdQLenPdf::18                       0                       # What read queue length does an incoming req see
system.mem_ctrl.rdQLenPdf::19                       0                       # What read queue length does an incoming req see
system.mem_ctrl.rdQLenPdf::20                       0                       # What read queue length does an incoming req see
system.mem_ctrl.rdQLenPdf::21                       0                       # What read queue length does an incoming req see
system.mem_ctrl.rdQLenPdf::22                       0                       # What read queue length does an incoming req see
system.mem_ctrl.rdQLenPdf::23                       0                       # What read queue length does an incoming req see
system.mem_ctrl.rdQLenPdf::24                       0                       # What read queue length does an incoming req see
system.mem_ctrl.rdQLenPdf::25                       0                       # What read queue length does an incoming req see
system.mem_ctrl.rdQLenPdf::26                       0                       # What read queue length does an incoming req see
system.mem_ctrl.rdQLenPdf::27                       0                       # What read queue length does an incoming req see
system.mem_ctrl.rdQLenPdf::28                       0                       # What read queue length does an incoming req see
system.mem_ctrl.rdQLenPdf::29                       0                       # What read queue length does an incoming req see
system.mem_ctrl.rdQLenPdf::30                       0                       # What read queue length does an incoming req see
system.mem_ctrl.rdQLenPdf::31                       0                       # What read queue length does an incoming req see
system.mem_ctrl.wrQLenPdf::0                        1                       # What write queue length does an incoming req see
system.mem_ctrl.wrQLenPdf::1                        1                       # What write queue length does an incoming req see
system.mem_ctrl.wrQLenPdf::2                        1                       # What write queue length does an incoming req see
system.mem_ctrl.wrQLenPdf::3                        1                       # What write queue length does an incoming req see
system.mem_ctrl.wrQLenPdf::4                        1                       # What write queue length does an incoming req see
system.mem_ctrl.wrQLenPdf::5                        1                       # What write queue length does an incoming req see
system.mem_ctrl.wrQLenPdf::6                        1                       # What write queue length does an incoming req see
system.mem_ctrl.wrQLenPdf::7                        1                       # What write queue length does an incoming req see
system.mem_ctrl.wrQLenPdf::8                        1                       # What write queue length does an incoming req see
system.mem_ctrl.wrQLenPdf::9                        1                       # What write queue length does an incoming req see
system.mem_ctrl.wrQLenPdf::10                       1                       # What write queue length does an incoming req see
system.mem_ctrl.wrQLenPdf::11                       1                       # What write queue length does an incoming req see
system.mem_ctrl.wrQLenPdf::12                       1                       # What write queue length does an incoming req see
system.mem_ctrl.wrQLenPdf::13                       1                       # What write queue length does an incoming req see
system.mem_ctrl.wrQLenPdf::14                       1                       # What write queue length does an incoming req see
system.mem_ctrl.wrQLenPdf::15                      64                       # What write queue length does an incoming req see
system.mem_ctrl.wrQLenPdf::16                      71                       # What write queue length does an incoming req see
system.mem_ctrl.wrQLenPdf::17                     105                       # What write queue length does an incoming req see
system.mem_ctrl.wrQLenPdf::18                     105                       # What write queue length does an incoming req see
system.mem_ctrl.wrQLenPdf::19                     105                       # What write queue length does an incoming req see
system.mem_ctrl.wrQLenPdf::20                     104                       # What write queue length does an incoming req see
system.mem_ctrl.wrQLenPdf::21                     104                       # What write queue length does an incoming req see
system.mem_ctrl.wrQLenPdf::22                     104                       # What write queue length does an incoming req see
system.mem_ctrl.wrQLenPdf::23                     104                       # What write queue length does an incoming req see
system.mem_ctrl.wrQLenPdf::24                     105                       # What write queue length does an incoming req see
system.mem_ctrl.wrQLenPdf::25                     104                       # What write queue length does an incoming req see
system.mem_ctrl.wrQLenPdf::26                     104                       # What write queue length does an incoming req see
system.mem_ctrl.wrQLenPdf::27                     104                       # What write queue length does an incoming req see
system.mem_ctrl.wrQLenPdf::28                     104                       # What write queue length does an incoming req see
system.mem_ctrl.wrQLenPdf::29                     104                       # What write queue length does an incoming req see
system.mem_ctrl.wrQLenPdf::30                     104                       # What write queue length does an incoming req see
system.mem_ctrl.wrQLenPdf::31                     104                       # What write queue length does an incoming req see
system.mem_ctrl.wrQLenPdf::32                     104                       # What write queue length does an incoming req see
system.mem_ctrl.wrQLenPdf::33                       0                       # What write queue length does an incoming req see
system.mem_ctrl.wrQLenPdf::34                       0                       # What write queue length does an incoming req see
system.mem_ctrl.wrQLenPdf::35                       0                       # What write queue length does an incoming req see
system.mem_ctrl.wrQLenPdf::36                       0                       # What write queue length does an incoming req see
system.mem_ctrl.wrQLenPdf::37                       0                       # What write queue length does an incoming req see
system.mem_ctrl.wrQLenPdf::38                       0                       # What write queue length does an incoming req see
system.mem_ctrl.wrQLenPdf::39                       0                       # What write queue length does an incoming req see
system.mem_ctrl.wrQLenPdf::40                       0                       # What write queue length does an incoming req see
system.mem_ctrl.wrQLenPdf::41                       0                       # What write queue length does an incoming req see
system.mem_ctrl.wrQLenPdf::42                       0                       # What write queue length does an incoming req see
system.mem_ctrl.wrQLenPdf::43                       0                       # What write queue length does an incoming req see
system.mem_ctrl.wrQLenPdf::44                       0                       # What write queue length does an incoming req see
system.mem_ctrl.wrQLenPdf::45                       0                       # What write queue length does an incoming req see
system.mem_ctrl.wrQLenPdf::46                       0                       # What write queue length does an incoming req see
system.mem_ctrl.wrQLenPdf::47                       0                       # What write queue length does an incoming req see
system.mem_ctrl.wrQLenPdf::48                       0                       # What write queue length does an incoming req see
system.mem_ctrl.wrQLenPdf::49                       0                       # What write queue length does an incoming req see
system.mem_ctrl.wrQLenPdf::50                       0                       # What write queue length does an incoming req see
system.mem_ctrl.wrQLenPdf::51                       0                       # What write queue length does an incoming req see
system.mem_ctrl.wrQLenPdf::52                       0                       # What write queue length does an incoming req see
system.mem_ctrl.wrQLenPdf::53                       0                       # What write queue length does an incoming req see
system.mem_ctrl.wrQLenPdf::54                       0                       # What write queue length does an incoming req see
system.mem_ctrl.wrQLenPdf::55                       0                       # What write queue length does an incoming req see
system.mem_ctrl.wrQLenPdf::56                       0                       # What write queue length does an incoming req see
system.mem_ctrl.wrQLenPdf::57                       0                       # What write queue length does an incoming req see
system.mem_ctrl.wrQLenPdf::58                       0                       # What write queue length does an incoming req see
system.mem_ctrl.wrQLenPdf::59                       0                       # What write queue length does an incoming req see
system.mem_ctrl.wrQLenPdf::60                       0                       # What write queue length does an incoming req see
system.mem_ctrl.wrQLenPdf::61                       0                       # What write queue length does an incoming req see
system.mem_ctrl.wrQLenPdf::62                       0                       # What write queue length does an incoming req see
system.mem_ctrl.wrQLenPdf::63                       0                       # What write queue length does an incoming req see
system.mem_ctrl.bytesPerActivate::samples         4836                       # Bytes accessed per row activation
system.mem_ctrl.bytesPerActivate::mean     188.109181                       # Bytes accessed per row activation
system.mem_ctrl.bytesPerActivate::gmean    135.725664                       # Bytes accessed per row activation
system.mem_ctrl.bytesPerActivate::stdev    187.425410                       # Bytes accessed per row activation
system.mem_ctrl.bytesPerActivate::0-127          1892     39.12%     39.12% # Bytes accessed per row activation
system.mem_ctrl.bytesPerActivate::128-255         1783     36.87%     75.99% # Bytes accessed per row activation
system.mem_ctrl.bytesPerActivate::256-383          563     11.64%     87.63% # Bytes accessed per row activation
system.mem_ctrl.bytesPerActivate::384-511          247      5.11%     92.74% # Bytes accessed per row activation
system.mem_ctrl.bytesPerActivate::512-639          120      2.48%     95.22% # Bytes accessed per row activation
system.mem_ctrl.bytesPerActivate::640-767           75      1.55%     96.77% # Bytes accessed per row activation
system.mem_ctrl.bytesPerActivate::768-895           52      1.08%     97.85% # Bytes accessed per row activation
system.mem_ctrl.bytesPerActivate::896-1023           26      0.54%     98.39% # Bytes accessed per row activation
system.mem_ctrl.bytesPerActivate::1024-1151           78      1.61%    100.00% # Bytes accessed per row activation
system.mem_ctrl.bytesPerActivate::total          4836                       # Bytes accessed per row activation
system.mem_ctrl.rdPerTurnAround::samples          104                       # Reads before turning the bus around for writes
system.mem_ctrl.rdPerTurnAround::mean      118.375000                       # Reads before turning the bus around for writes
system.mem_ctrl.rdPerTurnAround::gmean      82.939964                       # Reads before turning the bus around for writes
system.mem_ctrl.rdPerTurnAround::stdev     124.666093                       # Reads before turning the bus around for writes
system.mem_ctrl.rdPerTurnAround::0-31              13     12.50%     12.50% # Reads before turning the bus around for writes
system.mem_ctrl.rdPerTurnAround::32-63             29     27.88%     40.38% # Reads before turning the bus around for writes
system.mem_ctrl.rdPerTurnAround::64-95             19     18.27%     58.65% # Reads before turning the bus around for writes
system.mem_ctrl.rdPerTurnAround::96-127            14     13.46%     72.12% # Reads before turning the bus around for writes
system.mem_ctrl.rdPerTurnAround::128-159            7      6.73%     78.85% # Reads before turning the bus around for writes
system.mem_ctrl.rdPerTurnAround::160-191            5      4.81%     83.65% # Reads before turning the bus around for writes
system.mem_ctrl.rdPerTurnAround::192-223            6      5.77%     89.42% # Reads before turning the bus around for writes
system.mem_ctrl.rdPerTurnAround::224-255            1      0.96%     90.38% # Reads before turning the bus around for writes
system.mem_ctrl.rdPerTurnAround::256-287            3      2.88%     93.27% # Reads before turning the bus around for writes
system.mem_ctrl.rdPerTurnAround::320-351            1      0.96%     94.23% # Reads before turning the bus around for writes
system.mem_ctrl.rdPerTurnAround::352-383            1      0.96%     95.19% # Reads before turning the bus around for writes
system.mem_ctrl.rdPerTurnAround::384-415            2      1.92%     97.12% # Reads before turning the bus around for writes
system.mem_ctrl.rdPerTurnAround::480-511            1      0.96%     98.08% # Reads before turning the bus around for writes
system.mem_ctrl.rdPerTurnAround::544-575            1      0.96%     99.04% # Reads before turning the bus around for writes
system.mem_ctrl.rdPerTurnAround::864-895            1      0.96%    100.00% # Reads before turning the bus around for writes
system.mem_ctrl.rdPerTurnAround::total            104                       # Reads before turning the bus around for writes
system.mem_ctrl.wrPerTurnAround::samples          104                       # Writes before turning the bus around for reads
system.mem_ctrl.wrPerTurnAround::mean       17.288462                       # Writes before turning the bus around for reads
system.mem_ctrl.wrPerTurnAround::gmean      17.262533                       # Writes before turning the bus around for reads
system.mem_ctrl.wrPerTurnAround::stdev       0.941730                       # Writes before turning the bus around for reads
system.mem_ctrl.wrPerTurnAround::16                34     32.69%     32.69% # Writes before turning the bus around for reads
system.mem_ctrl.wrPerTurnAround::17                 7      6.73%     39.42% # Writes before turning the bus around for reads
system.mem_ctrl.wrPerTurnAround::18                62     59.62%     99.04% # Writes before turning the bus around for reads
system.mem_ctrl.wrPerTurnAround::19                 1      0.96%    100.00% # Writes before turning the bus around for reads
system.mem_ctrl.wrPerTurnAround::total            104                       # Writes before turning the bus around for reads
system.mem_ctrl.bytesReadDRAM                  795200                       # Total number of bytes read from DRAM
system.mem_ctrl.bytesReadWrQ                    32896                       # Total number of bytes read from write queue
system.mem_ctrl.bytesWritten                   115072                       # Total number of bytes written to DRAM
system.mem_ctrl.bytesReadSys                   828096                       # Total read bytes from the system interface side
system.mem_ctrl.bytesWrittenSys                174656                       # Total written bytes from the system interface side
system.mem_ctrl.avgRdBW                        178.78                       # Average DRAM read bandwidth in MiByte/s
system.mem_ctrl.avgWrBW                         25.87                       # Average achieved write bandwidth in MiByte/s
system.mem_ctrl.avgRdBWSys                     186.18                       # Average system read bandwidth in MiByte/s
system.mem_ctrl.avgWrBWSys                      39.27                       # Average system write bandwidth in MiByte/s
system.mem_ctrl.peakBW                       12800.00                       # Theoretical peak bandwidth in MiByte/s
system.mem_ctrl.busUtil                          1.60                       # Data bus utilization in percentage
system.mem_ctrl.busUtilRead                      1.40                       # Data bus utilization in percentage for reads
system.mem_ctrl.busUtilWrite                     0.20                       # Data bus utilization in percentage for writes
system.mem_ctrl.totGap                     4447643000                       # Total gap between requests
system.mem_ctrl.avgGap                      283867.95                       # Average gap between requests
system.mem_ctrl.masterReadBytes::.cpu.inst       590784                       # Per-master bytes read from memory
system.mem_ctrl.masterReadBytes::.cpu.data       204416                       # Per-master bytes read from memory
system.mem_ctrl.masterWriteBytes::.writebacks       115072                       # Per-master bytes write to memory
system.mem_ctrl.masterReadRate::.cpu.inst 132825339.840182587504                       # Per-master bytes read from memory rate (Bytes/sec)
system.mem_ctrl.masterReadRate::.cpu.data 45958632.374557815492                       # Per-master bytes read from memory rate (Bytes/sec)
system.mem_ctrl.masterWriteRate::.writebacks 25871515.657312132418                       # Per-master bytes write to memory rate (Bytes/sec)
system.mem_ctrl.masterReadAccesses::.cpu.inst         9231                       # Per-master read serviced memory accesses
system.mem_ctrl.masterReadAccesses::.cpu.data         3708                       # Per-master read serviced memory accesses
system.mem_ctrl.masterWriteAccesses::.writebacks         2729                       # Per-master write serviced memory accesses
system.mem_ctrl.masterReadTotalLat::.cpu.inst    264059500                       # Per-master read total memory access latency
system.mem_ctrl.masterReadTotalLat::.cpu.data     99270500                       # Per-master read total memory access latency
system.mem_ctrl.masterWriteTotalLat::.writebacks 102102854000                       # Per-master write total memory access latency
system.mem_ctrl.masterReadAvgLat::.cpu.inst     28605.73                       # Per-master read average memory access latency
system.mem_ctrl.masterReadAvgLat::.cpu.data     26771.98                       # Per-master read average memory access latency
system.mem_ctrl.masterWriteAvgLat::.writebacks  37414017.59                       # Per-master write average memory access latency
system.mem_ctrl.pageHitRate                     65.89                       # Row buffer hit rate, read and write combined
system.mem_ctrl.rank1.actEnergy              12430740                       # Energy for activate commands per rank (pJ)
system.mem_ctrl.rank1.preEnergy               6599505                       # Energy for precharge commands per rank (pJ)
system.mem_ctrl.rank1.readEnergy             26910660                       # Energy for read commands per rank (pJ)
system.mem_ctrl.rank1.writeEnergy             4473540                       # Energy for write commands per rank (pJ)
system.mem_ctrl.rank1.refreshEnergy      350959440.000000                       # Energy for refresh commands per rank (pJ)
system.mem_ctrl.rank1.actBackEnergy        1423752270                       # Energy for active background per rank (pJ)
system.mem_ctrl.rank1.preBackEnergy         509016000                       # Energy for precharge background per rank (pJ)
system.mem_ctrl.rank1.actPowerDownEnergy            0                       # Energy for active power-down per rank (pJ)
system.mem_ctrl.rank1.prePowerDownEnergy            0                       # Energy for precharge power-down per rank (pJ)
system.mem_ctrl.rank1.selfRefreshEnergy             0                       # Energy for self refresh per rank (pJ)
system.mem_ctrl.rank1.totalEnergy          2334142155                       # Total energy per rank (pJ)
system.mem_ctrl.rank1.averagePower         524.782704                       # Core power per rank (mW)
system.mem_ctrl.rank1.totalIdleTime                 0                       # Total Idle time Per DRAM Rank
system.mem_ctrl.rank1.memoryStateTime::IDLE   1309654500                       # Time in different power states
system.mem_ctrl.rank1.memoryStateTime::REF    148460000                       # Time in different power states
system.mem_ctrl.rank1.memoryStateTime::SREF            0                       # Time in different power states
system.mem_ctrl.rank1.memoryStateTime::PRE_PDN            0                       # Time in different power states
system.mem_ctrl.rank1.memoryStateTime::ACT   2989711500                       # Time in different power states
system.mem_ctrl.rank1.memoryStateTime::ACT_PDN            0                       # Time in different power states
system.mem_ctrl.rank0.actEnergy              22112580                       # Energy for activate commands per rank (pJ)
system.mem_ctrl.rank0.preEnergy              11753115                       # Energy for precharge commands per rank (pJ)
system.mem_ctrl.rank0.readEnergy             61803840                       # Energy for read commands per rank (pJ)
system.mem_ctrl.rank0.writeEnergy             4912020                       # Energy for write commands per rank (pJ)
system.mem_ctrl.rank0.refreshEnergy      350959440.000000                       # Energy for refresh commands per rank (pJ)
system.mem_ctrl.rank0.actBackEnergy        1719093780                       # Energy for active background per rank (pJ)
system.mem_ctrl.rank0.preBackEnergy         260307360                       # Energy for precharge background per rank (pJ)
system.mem_ctrl.rank0.actPowerDownEnergy            0                       # Energy for active power-down per rank (pJ)
system.mem_ctrl.rank0.prePowerDownEnergy            0                       # Energy for precharge power-down per rank (pJ)
system.mem_ctrl.rank0.selfRefreshEnergy             0                       # Energy for self refresh per rank (pJ)
system.mem_ctrl.rank0.totalEnergy          2430942135                       # Total energy per rank (pJ)
system.mem_ctrl.rank0.averagePower         546.546141                       # Core power per rank (mW)
system.mem_ctrl.rank0.totalIdleTime                 0                       # Total Idle time Per DRAM Rank
system.mem_ctrl.rank0.memoryStateTime::IDLE    661727750                       # Time in different power states
system.mem_ctrl.rank0.memoryStateTime::REF    148460000                       # Time in different power states
system.mem_ctrl.rank0.memoryStateTime::SREF            0                       # Time in different power states
system.mem_ctrl.rank0.memoryStateTime::PRE_PDN            0                       # Time in different power states
system.mem_ctrl.rank0.memoryStateTime::ACT   3637638250                       # Time in different power states
system.mem_ctrl.rank0.memoryStateTime::ACT_PDN            0                       # Time in different power states
system.mem_ctrl.power_state.pwrStateResidencyTicks::UNDEFINED   4447826000                       # Cumulative time (in ticks) in various power states
system.cache_medium.blocked_cycles::no_mshrs            0                       # number of cycles access was blocked
system.cache_medium.blocked_cycles::no_targets            0                       # number of cycles access was blocked
system.cache_medium.blocked::no_mshrs               0                       # number of cycles access was blocked
system.cache_medium.blocked::no_targets             0                       # number of cycles access was blocked
system.cache_medium.avg_blocked_cycles::no_mshrs          nan                       # average number of cycles each access was blocked
system.cache_medium.avg_blocked_cycles::no_targets          nan                       # average number of cycles each access was blocked
system.cache_medium.replacements                    0                       # number of replacements
system.cache_medium.power_state.pwrStateResidencyTicks::UNDEFINED   4447826000                       # Cumulative time (in ticks) in various power states
system.cache_medium.tags.tagsinuse                  0                       # Cycle average of tags in use
system.cache_medium.tags.total_refs                 0                       # Total number of references to valid blocks.
system.cache_medium.tags.sampled_refs               0                       # Sample count of references to valid blocks.
system.cache_medium.tags.avg_refs                 nan                       # Average number of references to valid blocks.
system.cache_medium.tags.warmup_cycle               0                       # Cycle when the warmup percentage was hit.
system.cache_medium.tags.tag_accesses               0                       # Number of tag accesses
system.cache_medium.tags.data_accesses              0                       # Number of data accesses
system.cache_medium.tags.power_state.pwrStateResidencyTicks::UNDEFINED   4447826000                       # Cumulative time (in ticks) in various power states
system.clk_domain.clock                          1000                       # Clock period in ticks
system.clk_domain.voltage_domain.voltage            1                       # Voltage in Volts
system.dcache.demand_hits::.cpu.data           359957                       # number of demand (read+write) hits
system.dcache.demand_hits::total               359957                       # number of demand (read+write) hits
system.dcache.overall_hits::.cpu.data          360032                       # number of overall hits
system.dcache.overall_hits::total              360032                       # number of overall hits
system.dcache.demand_misses::.cpu.data           8826                       # number of demand (read+write) misses
system.dcache.demand_misses::total               8826                       # number of demand (read+write) misses
system.dcache.overall_misses::.cpu.data          8826                       # number of overall misses
system.dcache.overall_misses::total              8826                       # number of overall misses
system.dcache.demand_miss_latency::.cpu.data    342904000                       # number of demand (read+write) miss cycles
system.dcache.demand_miss_latency::total    342904000                       # number of demand (read+write) miss cycles
system.dcache.overall_miss_latency::.cpu.data    342904000                       # number of overall miss cycles
system.dcache.overall_miss_latency::total    342904000                       # number of overall miss cycles
system.dcache.demand_accesses::.cpu.data       368783                       # number of demand (read+write) accesses
system.dcache.demand_accesses::total           368783                       # number of demand (read+write) accesses
system.dcache.overall_accesses::.cpu.data       368858                       # number of overall (read+write) accesses
system.dcache.overall_accesses::total          368858                       # number of overall (read+write) accesses
system.dcache.demand_miss_rate::.cpu.data     0.023933                       # miss rate for demand accesses
system.dcache.demand_miss_rate::total        0.023933                       # miss rate for demand accesses
system.dcache.overall_miss_rate::.cpu.data     0.023928                       # miss rate for overall accesses
system.dcache.overall_miss_rate::total       0.023928                       # miss rate for overall accesses
system.dcache.demand_avg_miss_latency::.cpu.data 38851.574892                       # average overall miss latency
system.dcache.demand_avg_miss_latency::total 38851.574892                       # average overall miss latency
system.dcache.overall_avg_miss_latency::.cpu.data 38851.574892                       # average overall miss latency
system.dcache.overall_avg_miss_latency::total 38851.574892                       # average overall miss latency
system.dcache.blocked_cycles::no_mshrs              0                       # number of cycles access was blocked
system.dcache.blocked_cycles::no_targets            0                       # number of cycles access was blocked
system.dcache.blocked::no_mshrs                     0                       # number of cycles access was blocked
system.dcache.blocked::no_targets                   0                       # number of cycles access was blocked
system.dcache.avg_blocked_cycles::no_mshrs          nan                       # average number of cycles each access was blocked
system.dcache.avg_blocked_cycles::no_targets          nan                       # average number of cycles each access was blocked
system.dcache.writebacks::.writebacks            4335                       # number of writebacks
system.dcache.writebacks::total                  4335                       # number of writebacks
system.dcache.demand_mshr_misses::.cpu.data         8826                       # number of demand (read+write) MSHR misses
system.dcache.demand_mshr_misses::total          8826                       # number of demand (read+write) MSHR misses
system.dcache.overall_mshr_misses::.cpu.data         8826                       # number of overall MSHR misses
system.dcache.overall_mshr_misses::total         8826                       # number of overall MSHR misses
system.dcache.demand_mshr_miss_latency::.cpu.data    325254000                       # number of demand (read+write) MSHR miss cycles
system.dcache.demand_mshr_miss_latency::total    325254000                       # number of demand (read+write) MSHR miss cycles
system.dcache.overall_mshr_miss_latency::.cpu.data    325254000                       # number of overall MSHR miss cycles
system.dcache.overall_mshr_miss_latency::total    325254000                       # number of overall MSHR miss cycles
system.dcache.demand_mshr_miss_rate::.cpu.data     0.023933                       # mshr miss rate for demand accesses
system.dcache.demand_mshr_miss_rate::total     0.023933                       # mshr miss rate for demand accesses
system.dcache.overall_mshr_miss_rate::.cpu.data     0.023928                       # mshr miss rate for overall accesses
system.dcache.overall_mshr_miss_rate::total     0.023928                       # mshr miss rate for overall accesses
system.dcache.demand_avg_mshr_miss_latency::.cpu.data 36851.801496                       # average overall mshr miss latency
system.dcache.demand_avg_mshr_miss_latency::total 36851.801496                       # average overall mshr miss latency
system.dcache.overall_avg_mshr_miss_latency::.cpu.data 36851.801496                       # average overall mshr miss latency
system.dcache.overall_avg_mshr_miss_latency::total 36851.801496                       # average overall mshr miss latency
system.dcache.replacements                       8569                       # number of replacements
system.dcache.ReadReq_hits::.cpu.data          218597                       # number of ReadReq hits
system.dcache.ReadReq_hits::total              218597                       # number of ReadReq hits
system.dcache.ReadReq_misses::.cpu.data          5990                       # number of ReadReq misses
system.dcache.ReadReq_misses::total              5990                       # number of ReadReq misses
system.dcache.ReadReq_miss_latency::.cpu.data    207266000                       # number of ReadReq miss cycles
system.dcache.ReadReq_miss_latency::total    207266000                       # number of ReadReq miss cycles
system.dcache.ReadReq_accesses::.cpu.data       224587                       # number of ReadReq accesses(hits+misses)
system.dcache.ReadReq_accesses::total          224587                       # number of ReadReq accesses(hits+misses)
system.dcache.ReadReq_miss_rate::.cpu.data     0.026671                       # miss rate for ReadReq accesses
system.dcache.ReadReq_miss_rate::total       0.026671                       # miss rate for ReadReq accesses
system.dcache.ReadReq_avg_miss_latency::.cpu.data 34602.003339                       # average ReadReq miss latency
system.dcache.ReadReq_avg_miss_latency::total 34602.003339                       # average ReadReq miss latency
system.dcache.ReadReq_mshr_misses::.cpu.data         5990                       # number of ReadReq MSHR misses
system.dcache.ReadReq_mshr_misses::total         5990                       # number of ReadReq MSHR misses
system.dcache.ReadReq_mshr_miss_latency::.cpu.data    195288000                       # number of ReadReq MSHR miss cycles
system.dcache.ReadReq_mshr_miss_latency::total    195288000                       # number of ReadReq MSHR miss cycles
system.dcache.ReadReq_mshr_miss_rate::.cpu.data     0.026671                       # mshr miss rate for ReadReq accesses
system.dcache.ReadReq_mshr_miss_rate::total     0.026671                       # mshr miss rate for ReadReq accesses
system.dcache.ReadReq_avg_mshr_miss_latency::.cpu.data 32602.337229                       # average ReadReq mshr miss latency
system.dcache.ReadReq_avg_mshr_miss_latency::total 32602.337229                       # average ReadReq mshr miss latency
system.dcache.WriteReq_hits::.cpu.data         141360                       # number of WriteReq hits
system.dcache.WriteReq_hits::total             141360                       # number of WriteReq hits
system.dcache.WriteReq_misses::.cpu.data         2836                       # number of WriteReq misses
system.dcache.WriteReq_misses::total             2836                       # number of WriteReq misses
system.dcache.WriteReq_miss_latency::.cpu.data    135638000                       # number of WriteReq miss cycles
system.dcache.WriteReq_miss_latency::total    135638000                       # number of WriteReq miss cycles
system.dcache.WriteReq_accesses::.cpu.data       144196                       # number of WriteReq accesses(hits+misses)
system.dcache.WriteReq_accesses::total         144196                       # number of WriteReq accesses(hits+misses)
system.dcache.WriteReq_miss_rate::.cpu.data     0.019668                       # miss rate for WriteReq accesses
system.dcache.WriteReq_miss_rate::total      0.019668                       # miss rate for WriteReq accesses
system.dcache.WriteReq_avg_miss_latency::.cpu.data 47827.221439                       # average WriteReq miss latency
system.dcache.WriteReq_avg_miss_latency::total 47827.221439                       # average WriteReq miss latency
system.dcache.WriteReq_mshr_misses::.cpu.data         2836                       # number of WriteReq MSHR misses
system.dcache.WriteReq_mshr_misses::total         2836                       # number of WriteReq MSHR misses
system.dcache.WriteReq_mshr_miss_latency::.cpu.data    129966000                       # number of WriteReq MSHR miss cycles
system.dcache.WriteReq_mshr_miss_latency::total    129966000                       # number of WriteReq MSHR miss cycles
system.dcache.WriteReq_mshr_miss_rate::.cpu.data     0.019668                       # mshr miss rate for WriteReq accesses
system.dcache.WriteReq_mshr_miss_rate::total     0.019668                       # mshr miss rate for WriteReq accesses
system.dcache.WriteReq_avg_mshr_miss_latency::.cpu.data 45827.221439                       # average WriteReq mshr miss latency
system.dcache.WriteReq_avg_mshr_miss_latency::total 45827.221439                       # average WriteReq mshr miss latency
system.dcache.SoftPFReq_hits::.cpu.data            75                       # number of SoftPFReq hits
system.dcache.SoftPFReq_hits::total                75                       # number of SoftPFReq hits
system.dcache.SoftPFReq_accesses::.cpu.data           75                       # number of SoftPFReq accesses(hits+misses)
system.dcache.SoftPFReq_accesses::total            75                       # number of SoftPFReq accesses(hits+misses)
system.dcache.power_state.pwrStateResidencyTicks::UNDEFINED   4447826000                       # Cumulative time (in ticks) in various power states
system.dcache.tags.tagsinuse               249.413794                       # Cycle average of tags in use
system.dcache.tags.total_refs                  338829                       # Total number of references to valid blocks.
system.dcache.tags.sampled_refs                  8569                       # Sample count of references to valid blocks.
system.dcache.tags.avg_refs                 39.541253                       # Average number of references to valid blocks.
system.dcache.tags.warmup_cycle                167000                       # Cycle when the warmup percentage was hit.
system.dcache.tags.occ_blocks::.cpu.data   249.413794                       # Average occupied blocks per requestor
system.dcache.tags.occ_percent::.cpu.data     0.974273                       # Average percentage of cache occupancy
system.dcache.tags.occ_percent::total        0.974273                       # Average percentage of cache occupancy
system.dcache.tags.occ_task_id_blocks::1024          256                       # Occupied blocks per task id
system.dcache.tags.age_task_id_blocks_1024::0           12                       # Occupied blocks per task id
system.dcache.tags.age_task_id_blocks_1024::1           39                       # Occupied blocks per task id
system.dcache.tags.age_task_id_blocks_1024::2          199                       # Occupied blocks per task id
system.dcache.tags.age_task_id_blocks_1024::3            6                       # Occupied blocks per task id
system.dcache.tags.occ_task_id_percent::1024            1                       # Percentage of cache occupancy per task id
system.dcache.tags.tag_accesses                377683                       # Number of tag accesses
system.dcache.tags.data_accesses               377683                       # Number of data accesses
system.dcache.tags.power_state.pwrStateResidencyTicks::UNDEFINED   4447826000                       # Cumulative time (in ticks) in various power states
system.cache_large.blocked_cycles::no_mshrs            0                       # number of cycles access was blocked
system.cache_large.blocked_cycles::no_targets            0                       # number of cycles access was blocked
system.cache_large.blocked::no_mshrs                0                       # number of cycles access was blocked
system.cache_large.blocked::no_targets              0                       # number of cycles access was blocked
system.cache_large.avg_blocked_cycles::no_mshrs          nan                       # average number of cycles each access was blocked
system.cache_large.avg_blocked_cycles::no_targets          nan                       # average number of cycles each access was blocked
system.cache_large.replacements                     0                       # number of replacements
system.cache_large.power_state.pwrStateResidencyTicks::UNDEFINED   4447826000                       # Cumulative time (in ticks) in various power states
system.cache_large.tags.tagsinuse                   0                       # Cycle average of tags in use
system.cache_large.tags.total_refs                  0                       # Total number of references to valid blocks.
system.cache_large.tags.sampled_refs                0                       # Sample count of references to valid blocks.
system.cache_large.tags.avg_refs                  nan                       # Average number of references to valid blocks.
system.cache_large.tags.warmup_cycle                0                       # Cycle when the warmup percentage was hit.
system.cache_large.tags.tag_accesses                0                       # Number of tag accesses
system.cache_large.tags.data_accesses               0                       # Number of data accesses
system.cache_large.tags.power_state.pwrStateResidencyTicks::UNDEFINED   4447826000                       # Cumulative time (in ticks) in various power states
system.l2cache.demand_hits::.cpu.inst            4745                       # number of demand (read+write) hits
system.l2cache.demand_hits::.cpu.data            5117                       # number of demand (read+write) hits
system.l2cache.demand_hits::total                9862                       # number of demand (read+write) hits
system.l2cache.overall_hits::.cpu.inst           4745                       # number of overall hits
system.l2cache.overall_hits::.cpu.data           5117                       # number of overall hits
system.l2cache.overall_hits::total               9862                       # number of overall hits
system.l2cache.demand_misses::.cpu.inst          9231                       # number of demand (read+write) misses
system.l2cache.demand_misses::.cpu.data          3709                       # number of demand (read+write) misses
[...]
system.dcache.tags.age_task_id_blocks_1024::2           85                       # Occupied blocks per task id
system.dcache.tags.age_task_id_blocks_1024::3           79                       # Occupied blocks per task id
system.dcache.tags.occ_task_id_percent::1024            1                       # Percentage of cache occupancy per task id
system.dcache.tags.tag_accesses               1921901                       # Number of tag accesses
system.dcache.tags.data_accesses              1921901                       # Number of data accesses
system.dcache.tags.power_state.pwrStateResidencyTicks::UNDEFINED  22615509000                       # Cumulative time (in ticks) in various power states
system.cache_large.blocked_cycles::no_mshrs            0                       # number of cycles access was blocked
system.cache_large.blocked_cycles::no_targets            0                       # number of cycles access was blocked
system.cache_large.blocked::no_mshrs                0                       # number of cycles access was blocked
system.cache_large.blocked::no_targets              0                       # number of cycles access was blocked
system.cache_large.avg_blocked_cycles::no_mshrs          nan                       # average number of cycles each access was blocked
system.cache_large.avg_blocked_cycles::no_targets          nan                       # average number of cycles each access was blocked
system.cache_large.replacements                     0                       # number of replacements
system.cache_large.power_state.pwrStateResidencyTicks::UNDEFINED  22615509000                       # Cumulative time (in ticks) in various power states
system.cache_large.tags.tagsinuse                   0                       # Cycle average of tags in use
system.cache_large.tags.total_refs                  0                       # Total number of references to valid blocks.
system.cache_large.tags.sampled_refs                0                       # Sample count of references to valid blocks.
system.cache_large.tags.avg_refs                  nan                       # Average number of references to valid blocks.
system.cache_large.tags.warmup_cycle                0                       # Cycle when the warmup percentage was hit.
system.cache_large.tags.tag_accesses                0                       # Number of tag accesses
system.cache_large.tags.data_accesses               0                       # Number of data accesses
system.cache_large.tags.power_state.pwrStateResidencyTicks::UNDEFINED  22615509000                       # Cumulative time (in ticks) in various power states
system.l2cache.demand_hits::.cpu.inst           28501                       # number of demand (read+write) hits
system.l2cache.demand_hits::.cpu.data           24992                       # number of demand (read+write) hits
system.l2cache.demand_hits::total               53493                       # number of demand (read+write) hits
system.l2cache.overall_hits::.cpu.inst          28501                       # number of overall hits
system.l2cache.overall_hits::.cpu.data          24992                       # number of overall hits
system.l2cache.overall_hits::total              53493                       # number of overall hits
system.l2cache.demand_misses::.cpu.inst         48657                       # number of demand (read+write) misses
system.l2cache.demand_misses::.cpu.data         22339                       # number of demand (read+write) misses
system.l2cache.demand_misses::total             70996                       # number of demand (read+write) misses
system.l2cache.overall_misses::.cpu.inst        48657                       # number of overall misses
system.l2cache.overall_misses::.cpu.data        22339                       # number of overall misses
system.l2cache.overall_misses::total            70996                       # number of overall misses
system.l2cache.demand_miss_latency::.cpu.inst   3298962000                       # number of demand (read+write) miss cycles
system.l2cache.demand_miss_latency::.cpu.data   1458537000                       # number of demand (read+write) miss cycles
system.l2cache.demand_miss_latency::total   4757499000                       # number of demand (read+write) miss cycles
system.l2cache.overall_miss_latency::.cpu.inst   3298962000                       # number of overall miss cycles
system.l2cache.overall_miss_latency::.cpu.data   1458537000                       # number of overall miss cycles
system.l2cache.overall_miss_latency::total   4757499000                       # number of overall miss cycles
system.l2cache.demand_accesses::.cpu.inst        77158                       # number of demand (read+write) accesses
system.l2cache.demand_accesses::.cpu.data        47331                       # number of demand (read+write) accesses
system.l2cache.demand_accesses::total          124489                       # number of demand (read+write) accesses
system.l2cache.overall_accesses::.cpu.inst        77158                       # number of overall (read+write) accesses
system.l2cache.overall_accesses::.cpu.data        47331                       # number of overall (read+write) accesses
system.l2cache.overall_accesses::total         124489                       # number of overall (read+write) accesses
system.l2cache.demand_miss_rate::.cpu.inst     0.630615                       # miss rate for demand accesses
system.l2cache.demand_miss_rate::.cpu.data     0.471974                       # miss rate for demand accesses
system.l2cache.demand_miss_rate::total       0.570299                       # miss rate for demand accesses
system.l2cache.overall_miss_rate::.cpu.inst     0.630615                       # miss rate for overall accesses
system.l2cache.overall_miss_rate::.cpu.data     0.471974                       # miss rate for overall accesses
system.l2cache.overall_miss_rate::total      0.570299                       # miss rate for overall accesses
system.l2cache.demand_avg_miss_latency::.cpu.inst 67800.357605                       # average overall miss latency
system.l2cache.demand_avg_miss_latency::.cpu.data 65291.060477                       # average overall miss latency
system.l2cache.demand_avg_miss_latency::total 67010.803426                       # average overall miss latency
system.l2cache.overall_avg_miss_latency::.cpu.inst 67800.357605                       # average overall miss latency
system.l2cache.overall_avg_miss_latency::.cpu.data 65291.060477                       # average overall miss latency
system.l2cache.overall_avg_miss_latency::total 67010.803426                       # average overall miss latency
system.l2cache.blocked_cycles::no_mshrs             0                       # number of cycles access was blocked
system.l2cache.blocked_cycles::no_targets            0                       # number of cycles access was blocked
system.l2cache.blocked::no_mshrs                    0                       # number of cycles access was blocked
system.l2cache.blocked::no_targets                  0                       # number of cycles access was blocked
system.l2cache.avg_blocked_cycles::no_mshrs          nan                       # average number of cycles each access was blocked
system.l2cache.avg_blocked_cycles::no_targets          nan                       # average number of cycles each access was blocked
system.l2cache.writebacks::.writebacks          11091                       # number of writebacks
system.l2cache.writebacks::total                11091                       # number of writebacks
system.l2cache.demand_mshr_misses::.cpu.inst        48657                       # number of demand (read+write) MSHR misses
system.l2cache.demand_mshr_misses::.cpu.data        22339                       # number of demand (read+write) MSHR misses
system.l2cache.demand_mshr_misses::total        70996                       # number of demand (read+write) MSHR misses
system.l2cache.overall_mshr_misses::.cpu.inst        48657                       # number of overall MSHR misses
system.l2cache.overall_mshr_misses::.cpu.data        22339                       # number of overall MSHR misses
system.l2cache.overall_mshr_misses::total        70996                       # number of overall MSHR misses
system.l2cache.demand_mshr_miss_latency::.cpu.inst   3201648000                       # number of demand (read+write) MSHR miss cycles
system.l2cache.demand_mshr_miss_latency::.cpu.data   1413859000                       # number of demand (read+write) MSHR miss cycles
system.l2cache.demand_mshr_miss_latency::total   4615507000                       # number of demand (read+write) MSHR miss cycles
system.l2cache.overall_mshr_miss_latency::.cpu.inst   3201648000                       # number of overall MSHR miss cycles
system.l2cache.overall_mshr_miss_latency::.cpu.data   1413859000                       # number of overall MSHR miss cycles
system.l2cache.overall_mshr_miss_latency::total   4615507000                       # number of overall MSHR miss cycles
system.l2cache.demand_mshr_miss_rate::.cpu.inst     0.630615                       # mshr miss rate for demand accesses
system.l2cache.demand_mshr_miss_rate::.cpu.data     0.471974                       # mshr miss rate for demand accesses
system.l2cache.demand_mshr_miss_rate::total     0.570299                       # mshr miss rate for demand accesses
system.l2cache.overall_mshr_miss_rate::.cpu.inst     0.630615                       # mshr miss rate for overall accesses
system.l2cache.overall_mshr_miss_rate::.cpu.data     0.471974                       # mshr miss rate for overall accesses
system.l2cache.overall_mshr_miss_rate::total     0.570299                       # mshr miss rate for overall accesses
system.l2cache.demand_avg_mshr_miss_latency::.cpu.inst 65800.357605                       # average overall mshr miss latency
system.l2cache.demand_avg_mshr_miss_latency::.cpu.data 63291.060477                       # average overall mshr miss latency
system.l2cache.demand_avg_mshr_miss_latency::total 65010.803426                       # average overall mshr miss latency
system.l2cache.overall_avg_mshr_miss_latency::.cpu.inst 65800.357605                       # average overall mshr miss latency
system.l2cache.overall_avg_mshr_miss_latency::.cpu.data 63291.060477                       # average overall mshr miss latency
system.l2cache.overall_avg_mshr_miss_latency::total 65010.803426                       # average overall mshr miss latency
system.l2cache.replacements                     79985                       # number of replacements
system.l2cache.ReadReq_hits::.cpu.inst          28501                       # number of ReadReq hits
system.l2cache.ReadReq_hits::.cpu.data          24992                       # number of ReadReq hits
system.l2cache.ReadReq_hits::total              53493                       # number of ReadReq hits
system.l2cache.ReadReq_misses::.cpu.inst        48657                       # number of ReadReq misses
system.l2cache.ReadReq_misses::.cpu.data        22339                       # number of ReadReq misses
system.l2cache.ReadReq_misses::total            70996                       # number of ReadReq misses
system.l2cache.ReadReq_miss_latency::.cpu.inst   3298962000                       # number of ReadReq miss cycles
system.l2cache.ReadReq_miss_latency::.cpu.data   1458537000                       # number of ReadReq miss cycles
system.l2cache.ReadReq_miss_latency::total   4757499000                       # number of ReadReq miss cycles
system.l2cache.ReadReq_accesses::.cpu.inst        77158                       # number of ReadReq accesses(hits+misses)
system.l2cache.ReadReq_accesses::.cpu.data        47331                       # number of ReadReq accesses(hits+misses)
system.l2cache.ReadReq_accesses::total         124489                       # number of ReadReq accesses(hits+misses)
system.l2cache.ReadReq_miss_rate::.cpu.inst     0.630615                       # miss rate for ReadReq accesses
system.l2cache.ReadReq_miss_rate::.cpu.data     0.471974                       # miss rate for ReadReq accesses
system.l2cache.ReadReq_miss_rate::total      0.570299                       # miss rate for ReadReq accesses
system.l2cache.ReadReq_avg_miss_latency::.cpu.inst 67800.357605                       # average ReadReq miss latency
system.l2cache.ReadReq_avg_miss_latency::.cpu.data 65291.060477                       # average ReadReq miss latency
system.l2cache.ReadReq_avg_miss_latency::total 67010.803426                       # average ReadReq miss latency
system.l2cache.ReadReq_mshr_misses::.cpu.inst        48657                       # number of ReadReq MSHR misses
system.l2cache.ReadReq_mshr_misses::.cpu.data        22339                       # number of ReadReq MSHR misses
system.l2cache.ReadReq_mshr_misses::total        70996                       # number of ReadReq MSHR misses
system.l2cache.ReadReq_mshr_miss_latency::.cpu.inst   3201648000                       # number of ReadReq MSHR miss cycles
system.l2cache.ReadReq_mshr_miss_latency::.cpu.data   1413859000                       # number of ReadReq MSHR miss cycles
system.l2cache.ReadReq_mshr_miss_latency::total   4615507000                       # number of ReadReq MSHR miss cycles
system.l2cache.ReadReq_mshr_miss_rate::.cpu.inst     0.630615                       # mshr miss rate for ReadReq accesses
system.l2cache.ReadReq_mshr_miss_rate::.cpu.data     0.471974                       # mshr miss rate for ReadReq accesses
system.l2cache.ReadReq_mshr_miss_rate::total     0.570299                       # mshr miss rate for ReadReq accesses
system.l2cache.ReadReq_avg_mshr_miss_latency::.cpu.inst 65800.357605                       # average ReadReq mshr miss latency
system.l2cache.ReadReq_avg_mshr_miss_latency::.cpu.data 63291.060477                       # average ReadReq mshr miss latency
system.l2cache.ReadReq_avg_mshr_miss_latency::total 65010.803426                       # average ReadReq mshr miss latency
system.l2cache.WritebackDirty_hits::.writebacks        17178                       # number of WritebackDirty hits
system.l2cache.WritebackDirty_hits::total        17178                       # number of WritebackDirty hits
system.l2cache.WritebackDirty_accesses::.writebacks        17178                       # number of WritebackDirty accesses(hits+misses)
system.l2cache.WritebackDirty_accesses::total        17178                       # number of WritebackDirty accesses(hits+misses)
system.l2cache.power_state.pwrStateResidencyTicks::UNDEFINED  22615509000                       # Cumulative time (in ticks) in various power states
system.l2cache.tags.tagsinuse              509.885780                       # Cycle average of tags in use
system.l2cache.tags.total_refs                 141667                       # Total number of references to valid blocks.
system.l2cache.tags.sampled_refs                80497                       # Sample count of references to valid blocks.
system.l2cache.tags.avg_refs                 1.759904                       # Average number of references to valid blocks.
system.l2cache.tags.warmup_cycle                76000                       # Cycle when the warmup percentage was hit.
system.l2cache.tags.occ_blocks::.writebacks    68.555007                       # Average occupied blocks per requestor
system.l2cache.tags.occ_blocks::.cpu.inst   252.840970                       # Average occupied blocks per requestor
system.l2cache.tags.occ_blocks::.cpu.data   188.489803                       # Average occupied blocks per requestor
system.l2cache.tags.occ_percent::.writebacks     0.133896                       # Average percentage of cache occupancy
system.l2cache.tags.occ_percent::.cpu.inst     0.493830                       # Average percentage of cache occupancy
system.l2cache.tags.occ_percent::.cpu.data     0.368144                       # Average percentage of cache occupancy
system.l2cache.tags.occ_percent::total       0.995871                       # Average percentage of cache occupancy
system.l2cache.tags.occ_task_id_blocks::1024          512                       # Occupied blocks per task id
system.l2cache.tags.age_task_id_blocks_1024::0           56                       # Occupied blocks per task id
system.l2cache.tags.age_task_id_blocks_1024::1          114                       # Occupied blocks per task id
system.l2cache.tags.age_task_id_blocks_1024::2          147                       # Occupied blocks per task id
system.l2cache.tags.age_task_id_blocks_1024::3          195                       # Occupied blocks per task id
system.l2cache.tags.occ_task_id_percent::1024            1                       # Percentage of cache occupancy per task id
system.l2cache.tags.tag_accesses               222164                       # Number of tag accesses
system.l2cache.tags.data_accesses              222164                       # Number of data accesses
system.l2cache.tags.power_state.pwrStateResidencyTicks::UNDEFINED  22615509000                       # Cumulative time (in ticks) in various power states
system.l2bar.trans_dist::ReadReq               124489                       # Transaction distribution
system.l2bar.trans_dist::ReadResp              124489                       # Transaction distribution
system.l2bar.trans_dist::WritebackDirty         17178                       # Transaction distribution
system.l2bar.pkt_count_system.dcache.mem_side::system.l2cache.cpu_side       111840                       # Packet count per connected master and slave (bytes)
system.l2bar.pkt_count_system.icache.mem_side::system.l2cache.cpu_side       154316                       # Packet count per connected master and slave (bytes)
system.l2bar.pkt_count::total                  266156                       # Packet count per connected master and slave (bytes)
system.l2bar.pkt_size_system.dcache.mem_side::system.l2cache.cpu_side      4128576                       # Cumulative packet size per connected master and slave (bytes)
system.l2bar.pkt_size_system.icache.mem_side::system.l2cache.cpu_side      4938112                       # Cumulative packet size per connected master and slave (bytes)
system.l2bar.pkt_size::total                  9066688                       # Cumulative packet size per connected master and slave (bytes)
system.l2bar.respLayer1.occupancy           385790000                       # Layer occupancy (ticks)
system.l2bar.respLayer1.utilization               1.7                       # Layer utilization (%)
system.l2bar.reqLayer0.occupancy            210379000                       # Layer occupancy (ticks)
system.l2bar.reqLayer0.utilization                0.9                       # Layer utilization (%)
system.l2bar.respLayer0.occupancy           236655000                       # Layer occupancy (ticks)
system.l2bar.respLayer0.utilization               1.0                       # Layer utilization (%)
system.l2bar.power_state.pwrStateResidencyTicks::UNDEFINED  22615509000                       # Cumulative time (in ticks) in various power states
system.cpu.dtb.walker.power_state.pwrStateResidencyTicks::UNDEFINED  22615509000                       # Cumulative time (in ticks) in various power states
system.cpu.interrupts.clk_domain.clock          16000                       # Clock period in ticks
system.cpu.itb.walker.power_state.pwrStateResidencyTicks::UNDEFINED  22615509000                       # Cumulative time (in ticks) in various power states
system.cpu.power_state.numTransitions               1                       # Number of power state transitions
system.cpu.power_state.pwrStateResidencyTicks::ON  22615509000                       # Cumulative time (in ticks) in various power states

---------- End Simulation Statistics   ----------
