
---------- Begin Simulation Statistics ----------
final_tick                                 4235829000                       # Number of ticks from beginning of simulation (restored from checkpoints and never reset)
host_inst_rate                                  90945                       # Simulator instruction rate (inst/s)
host_mem_usage                               34211228                       # Number of bytes of host memory used
host_op_rate                                   178001                       # Simulator op (including micro ops) rate (op/s)
host_seconds                                    11.00                       # Real time elapsed on the host
host_tick_rate                              385212137                       # Simulator tick rate (ticks/s)
sim_freq                                 1000000000000                       # Frequency of simulated ticks
sim_insts                                     1000012                       # Number of instructions simulated
sim_ops                                       1957307                       # Number of ops (including micro ops) simulated
sim_seconds                                  0.004236                       # Number of seconds simulated
sim_ticks                                  4235829000                       # Number of ticks simulated
system.cpu.Branches                            218932                       # Number of branches fetched
system.cpu.committedInsts                     1000012                       # Number of instructions committed
system.cpu.committedOps                       1957307                       # Number of ops (including micro ops) committed
system.cpu.dtb.rdAccesses                      183786                       # TLB accesses on read requests
system.cpu.dtb.rdMisses                            35                       # TLB misses on read requests
system.cpu.dtb.wrAccesses                      130535                       # TLB accesses on write requests
system.cpu.dtb.wrMisses                            92                       # TLB misses on write requests
system.cpu.idle_fraction                            0                       # Percentage of idle cycles
system.cpu.itb.rdAccesses                           0                       # TLB accesses on read requests
system.cpu.itb.rdMisses                             0                       # TLB misses on read requests
system.cpu.itb.wrAccesses                     1330364                       # TLB accesses on write requests
system.cpu.itb.wrMisses                            90                       # TLB misses on write requests
system.cpu.not_idle_fraction                        1                       # Percentage of non-idle cycles
system.cpu.numCycles                          4235818                       # number of cpu cycles simulated
system.cpu.numWorkItemsCompleted                    0                       # number of work items this cpu completed
system.cpu.numWorkItemsStarted                      0                       # number of work items this cpu started
system.cpu.num_busy_cycles                    4235818                       # Number of busy cycles
system.cpu.num_cc_register_reads              1243415                       # number of times the CC registers were read
system.cpu.num_cc_register_writes              640901                       # number of times the CC registers were written
system.cpu.num_conditional_control_insts       167734                       # number of instructions that are conditional controls
system.cpu.num_fp_alu_accesses                  84033                       # Number of float alu accesses
system.cpu.num_fp_insts                         84033                       # number of float instructions
system.cpu.num_fp_register_reads               125416                       # number of times the floating registers were read
system.cpu.num_fp_register_writes               65635                       # number of times the floating registers were written
system.cpu.num_func_calls                       28371                       # number of times a function call or return occured
system.cpu.num_idle_cycles                          0                       # Number of idle cycles
system.cpu.num_int_alu_accesses               1896497                       # Number of integer alu accesses
system.cpu.num_int_insts                      1896497                       # number of integer instructions
system.cpu.num_int_register_reads             3666923                       # number of times the integer registers were read
system.cpu.num_int_register_writes            1560077                       # number of times the integer registers were written
system.cpu.num_load_insts                      182974                       # Number of load instructions
system.cpu.num_mem_refs                        313399                       # number of memory refs
system.cpu.num_store_insts                     130425                       # Number of store instructions
system.cpu.num_vec_alu_accesses                     0                       # Number of vector alu accesses
system.cpu.num_vec_insts                            0                       # number of vector instructions
system.cpu.num_vec_register_reads                   0                       # number of times the vector registers were read
system.cpu.num_vec_register_writes                  0                       # number of times the vector registers were written
system.cpu.op_class::No_OpClass                 15388      0.79%      0.79% # Class of executed instruction
system.cpu.op_class::IntAlu                   1556399     79.52%     80.30% # Class of executed instruction
system.cpu.op_class::IntMult                     1608      0.08%     80.39% # Class of executed instruction
system.cpu.op_class::IntDiv                     12886      0.66%     81.04% # Class of executed instruction
system.cpu.op_class::FloatAdd                    1125      0.06%     81.10% # Class of executed instruction
system.cpu.op_class::FloatCmp                       0      0.00%     81.10% # Class of executed instruction
system.cpu.op_class::FloatCvt                       0      0.00%     81.10% # Class of executed instruction
system.cpu.op_class::FloatMult                      0      0.00%     81.10% # Class of executed instruction
system.cpu.op_class::FloatMultAcc                   0      0.00%     81.10% # Class of executed instruction
system.cpu.op_class::FloatDiv                       0      0.00%     81.10% # Class of executed instruction
system.cpu.op_class::FloatMisc                      0      0.00%     81.10% # Class of executed instruction
system.cpu.op_class::FloatSqrt                      0      0.00%     81.10% # Class of executed instruction
system.cpu.op_class::SimdAdd                      506      0.03%     81.13% # Class of executed instruction
system.cpu.op_class::SimdAddAcc                     0      0.00%     81.13% # Class of executed instruction
system.cpu.op_class::SimdAlu                    16673      0.85%     81.98% # Class of executed instruction
system.cpu.op_class::SimdCmp                        0      0.00%     81.98% # Class of executed instruction
system.cpu.op_class::SimdCvt                    13388      0.68%     82.66% # Class of executed instruction
system.cpu.op_class::SimdMisc                   15708      0.80%     83.47% # Class of executed instruction
system.cpu.op_class::SimdMult                       0      0.00%     83.47% # Class of executed instruction
system.cpu.op_class::SimdMultAcc                    0      0.00%     83.47% # Class of executed instruction
system.cpu.op_class::SimdShift                    827      0.04%     83.51% # Class of executed instruction
system.cpu.op_class::SimdShiftAcc                   0      0.00%     83.51% # Class of executed instruction
system.cpu.op_class::SimdDiv                        0      0.00%     83.51% # Class of executed instruction
system.cpu.op_class::SimdSqrt                       0      0.00%     83.51% # Class of executed instruction
system.cpu.op_class::SimdFloatAdd                4280      0.22%     83.73% # Class of executed instruction
system.cpu.op_class::SimdFloatAlu                   0      0.00%     83.73% # Class of executed instruction
system.cpu.op_class::SimdFloatCmp                   0      0.00%     83.73% # Class of executed instruction
system.cpu.op_class::SimdFloatCvt                1712      0.09%     83.81% # Class of executed instruction
system.cpu.op_class::SimdFloatDiv                   0      0.00%     83.81% # Class of executed instruction
system.cpu.op_class::SimdFloatMisc                  0      0.00%     83.81% # Class of executed instruction
system.cpu.op_class::SimdFloatMult               2568      0.13%     83.94% # Class of executed instruction
system.cpu.op_class::SimdFloatMultAcc               0      0.00%     83.94% # Class of executed instruction
system.cpu.op_class::SimdFloatSqrt                856      0.04%     83.99% # Class of executed instruction
system.cpu.op_class::SimdReduceAdd                  0      0.00%     83.99% # Class of executed instruction
system.cpu.op_class::SimdReduceAlu                  0      0.00%     83.99% # Class of executed instruction
system.cpu.op_class::SimdReduceCmp                  0      0.00%     83.99% # Class of executed instruction
system.cpu.op_class::SimdFloatReduceAdd             0      0.00%     83.99% # Class of executed instruction
system.cpu.op_class::SimdFloatReduceCmp             0      0.00%     83.99% # Class of executed instruction
system.cpu.op_class::SimdAes                        0      0.00%     83.99% # Class of executed instruction
system.cpu.op_class::SimdAesMix                     0      0.00%     83.99% # Class of executed instruction
system.cpu.op_class::SimdSha1Hash                   0      0.00%     83.99% # Class of executed instruction
system.cpu.op_class::SimdSha1Hash2                  0      0.00%     83.99% # Class of executed instruction
system.cpu.op_class::SimdSha256Hash                 0      0.00%     83.99% # Class of executed instruction
system.cpu.op_class::SimdSha256Hash2                0      0.00%     83.99% # Class of executed instruction
system.cpu.op_class::SimdShaSigma2                  0      0.00%     83.99% # Class of executed instruction
system.cpu.op_class::SimdShaSigma3                  0      0.00%     83.99% # Class of executed instruction
system.cpu.op_class::SimdPredAlu                    0      0.00%     83.99% # Class of executed instruction
system.cpu.op_class::MemRead                   160941      8.22%     92.21% # Class of executed instruction
system.cpu.op_class::MemWrite                  126721      6.47%     98.69% # Class of executed instruction
system.cpu.op_class::FloatMemRead               22033      1.13%     99.81% # Class of executed instruction
system.cpu.op_class::FloatMemWrite               3704      0.19%    100.00% # Class of executed instruction
system.cpu.op_class::IprAccess                      0      0.00%    100.00% # Class of executed instruction
system.cpu.op_class::InstPrefetch                   0      0.00%    100.00% # Class of executed instruction
system.cpu.op_class::total                    1957323                       # Class of executed instruction
system.cpu.workload.numSyscalls                    67                       # Number of system calls
system.dynamic_cache.flushTicks                     0                       # Ticks taken to flush
system.dynamic_cache.numFlushes                     0                       # Number of Flushes Taken
system.cache_small.demand_hits::.cpu.inst        10576                       # number of demand (read+write) hits
system.cache_small.demand_hits::.cpu.data          650                       # number of demand (read+write) hits
system.cache_small.demand_hits::total           11226                       # number of demand (read+write) hits
system.cache_small.overall_hits::.cpu.inst        10576                       # number of overall hits
system.cache_small.overall_hits::.cpu.data          650                       # number of overall hits
system.cache_small.overall_hits::total          11226                       # number of overall hits
system.cache_small.demand_misses::.cpu.inst         1921                       # number of demand (read+write) misses
system.cache_small.demand_misses::.cpu.data         3927                       # number of demand (read+write) misses
system.cache_small.demand_misses::total          5848                       # number of demand (read+write) misses
system.cache_small.overall_misses::.cpu.inst         1921                       # number of overall misses
system.cache_small.overall_misses::.cpu.data         3927                       # number of overall misses
system.cache_small.overall_misses::total         5848                       # number of overall misses
system.cache_small.demand_miss_latency::.cpu.inst    123744000                       # number of demand (read+write) miss cycles
system.cache_small.demand_miss_latency::.cpu.data    233191000                       # number of demand (read+write) miss cycles
system.cache_small.demand_miss_latency::total    356935000                       # number of demand (read+write) miss cycles
system.cache_small.overall_miss_latency::.cpu.inst    123744000                       # number of overall miss cycles
system.cache_small.overall_miss_latency::.cpu.data    233191000                       # number of overall miss cycles
system.cache_small.overall_miss_latency::total    356935000                       # number of overall miss cycles
system.cache_small.demand_accesses::.cpu.inst        12497                       # number of demand (read+write) accesses
system.cache_small.demand_accesses::.cpu.data         4577                       # number of demand (read+write) accesses
system.cache_small.demand_accesses::total        17074                       # number of demand (read+write) accesses
system.cache_small.overall_accesses::.cpu.inst        12497                       # number of overall (read+write) accesses
system.cache_small.overall_accesses::.cpu.data         4577                       # number of overall (read+write) accesses
system.cache_small.overall_accesses::total        17074                       # number of overall (read+write) accesses
system.cache_small.demand_miss_rate::.cpu.inst     0.153717                       # miss rate for demand accesses
system.cache_small.demand_miss_rate::.cpu.data     0.857986                       # miss rate for demand accesses
system.cache_small.demand_miss_rate::total     0.342509                       # miss rate for demand accesses
system.cache_small.overall_miss_rate::.cpu.inst     0.153717                       # miss rate for overall accesses
system.cache_small.overall_miss_rate::.cpu.data     0.857986                       # miss rate for overall accesses
system.cache_small.overall_miss_rate::total     0.342509                       # miss rate for overall accesses
system.cache_small.demand_avg_miss_latency::.cpu.inst 64416.449766                       # average overall miss latency
system.cache_small.demand_avg_miss_latency::.cpu.data 59381.461676                       # average overall miss latency
system.cache_small.demand_avg_miss_latency::total 61035.396717                       # average overall miss latency
system.cache_small.overall_avg_miss_latency::.cpu.inst 64416.449766                       # average overall miss latency
system.cache_small.overall_avg_miss_latency::.cpu.data 59381.461676                       # average overall miss latency
system.cache_small.overall_avg_miss_latency::total 61035.396717                       # average overall miss latency
system.cache_small.blocked_cycles::no_mshrs            0                       # number of cycles access was blocked
system.cache_small.blocked_cycles::no_targets            0                       # number of cycles access was blocked
system.cache_small.blocked::no_mshrs                0                       # number of cycles access was blocked
system.cache_small.blocked::no_targets              0                       # number of cycles access was blocked
system.cache_small.avg_blocked_cycles::no_mshrs          nan                       # average number of cycles each access was blocked
system.cache_small.avg_blocked_cycles::no_targets          nan                       # average number of cycles each access was blocked
system.cache_small.writebacks::.writebacks          757                       # number of writebacks
system.cache_small.writebacks::total              757                       # number of writebacks
system.cache_small.demand_mshr_misses::.cpu.inst         1921                       # number of demand (read+write) MSHR misses
system.cache_small.demand_mshr_misses::.cpu.data         3927                       # number of demand (read+write) MSHR misses
system.cache_small.demand_mshr_misses::total         5848                       # number of demand (read+write) MSHR misses
system.cache_small.overall_mshr_misses::.cpu.inst         1921                       # number of overall MSHR misses
system.cache_small.overall_mshr_misses::.cpu.data         3927                       # number of overall MSHR misses
system.cache_small.overall_mshr_misses::total         5848                       # number of overall MSHR misses
system.cache_small.demand_mshr_miss_latency::.cpu.inst    119902000                       # number of demand (read+write) MSHR miss cycles
system.cache_small.demand_mshr_miss_latency::.cpu.data    225337000                       # number of demand (read+write) MSHR miss cycles
system.cache_small.demand_mshr_miss_latency::total    345239000                       # number of demand (read+write) MSHR miss cycles
system.cache_small.overall_mshr_miss_latency::.cpu.inst    119902000                       # number of overall MSHR miss cycles
system.cache_small.overall_mshr_miss_latency::.cpu.data    225337000                       # number of overall MSHR miss cycles
system.cache_small.overall_mshr_miss_latency::total    345239000                       # number of overall MSHR miss cycles
system.cache_small.demand_mshr_miss_rate::.cpu.inst     0.153717                       # mshr miss rate for demand accesses
system.cache_small.demand_mshr_miss_rate::.cpu.data     0.857986                       # mshr miss rate for demand accesses
system.cache_small.demand_mshr_miss_rate::total     0.342509                       # mshr miss rate for demand accesses
system.cache_small.overall_mshr_miss_rate::.cpu.inst     0.153717                       # mshr miss rate for overall accesses
system.cache_small.overall_mshr_miss_rate::.cpu.data     0.857986                       # mshr miss rate for overall accesses
system.cache_small.overall_mshr_miss_rate::total     0.342509                       # mshr miss rate for overall accesses
system.cache_small.demand_avg_mshr_miss_latency::.cpu.inst 62416.449766                       # average overall mshr miss latency
system.cache_small.demand_avg_mshr_miss_latency::.cpu.data 57381.461676                       # average overall mshr miss latency
system.cache_small.demand_avg_mshr_miss_latency::total 59035.396717                       # average overall mshr miss latency
system.cache_small.overall_avg_mshr_miss_latency::.cpu.inst 62416.449766                       # average overall mshr miss latency
system.cache_small.overall_avg_mshr_miss_latency::.cpu.data 57381.461676                       # average overall mshr miss latency
system.cache_small.overall_avg_mshr_miss_latency::total 59035.396717                       # average overall mshr miss latency
system.cache_small.replacements                  2527                       # number of replacements
system.cache_small.ReadReq_hits::.cpu.inst        10576                       # number of ReadReq hits
system.cache_small.ReadReq_hits::.cpu.data          650                       # number of ReadReq hits
system.cache_small.ReadReq_hits::total          11226                       # number of ReadReq hits
system.cache_small.ReadReq_misses::.cpu.inst         1921                       # number of ReadReq misses
system.cache_small.ReadReq_misses::.cpu.data         3927                       # number of ReadReq misses
system.cache_small.ReadReq_misses::total         5848                       # number of ReadReq misses
system.cache_small.ReadReq_miss_latency::.cpu.inst    123744000                       # number of ReadReq miss cycles
system.cache_small.ReadReq_miss_latency::.cpu.data    233191000                       # number of ReadReq miss cycles
system.cache_small.ReadReq_miss_latency::total    356935000                       # number of ReadReq miss cycles
system.cache_small.ReadReq_accesses::.cpu.inst        12497                       # number of ReadReq accesses(hits+misses)
system.cache_small.ReadReq_accesses::.cpu.data         4577                       # number of ReadReq accesses(hits+misses)
system.cache_small.ReadReq_accesses::total        17074                       # number of ReadReq accesses(hits+misses)
system.cache_small.ReadReq_miss_rate::.cpu.inst     0.153717                       # miss rate for ReadReq accesses
system.cache_small.ReadReq_miss_rate::.cpu.data     0.857986                       # miss rate for ReadReq accesses
system.cache_small.ReadReq_miss_rate::total     0.342509                       # miss rate for ReadReq accesses
system.cache_small.ReadReq_avg_miss_latency::.cpu.inst 64416.449766                       # average ReadReq miss latency
system.cache_small.ReadReq_avg_miss_latency::.cpu.data 59381.461676                       # average ReadReq miss latency
system.cache_small.ReadReq_avg_miss_latency::total 61035.396717                       # average ReadReq miss latency
system.cache_small.ReadReq_mshr_misses::.cpu.inst         1921                       # number of ReadReq MSHR misses
system.cache_small.ReadReq_mshr_misses::.cpu.data         3927                       # number of ReadReq MSHR misses
system.cache_small.ReadReq_mshr_misses::total         5848                       # number of ReadReq MSHR misses
system.cache_small.ReadReq_mshr_miss_latency::.cpu.inst    119902000                       # number of ReadReq MSHR miss cycles
system.cache_small.ReadReq_mshr_miss_latency::.cpu.data    225337000                       # number of ReadReq MSHR miss cycles
system.cache_small.ReadReq_mshr_miss_latency::total    345239000                       # number of ReadReq MSHR miss cycles
system.cache_small.ReadReq_mshr_miss_rate::.cpu.inst     0.153717                       # mshr miss rate for ReadReq accesses
system.cache_small.ReadReq_mshr_miss_rate::.cpu.data     0.857986                       # mshr miss rate for ReadReq accesses
system.cache_small.ReadReq_mshr_miss_rate::total     0.342509                       # mshr miss rate for ReadReq accesses
system.cache_small.ReadReq_avg_mshr_miss_latency::.cpu.inst 62416.449766                       # average ReadReq mshr miss latency
system.cache_small.ReadReq_avg_mshr_miss_latency::.cpu.data 57381.461676                       # average ReadReq mshr miss latency
system.cache_small.ReadReq_avg_mshr_miss_latency::total 59035.396717                       # average ReadReq mshr miss latency
system.cache_small.WritebackDirty_hits::.writebacks         3949                       # number of WritebackDirty hits
system.cache_small.WritebackDirty_hits::total         3949                       # number of WritebackDirty hits
system.cache_small.WritebackDirty_accesses::.writebacks         3949                       # number of WritebackDirty accesses(hits+misses)
system.cache_small.WritebackDirty_accesses::total         3949                       # number of WritebackDirty accesses(hits+misses)
system.cache_small.power_state.pwrStateResidencyTicks::UNDEFINED   4235829000                       # Cumulative time (in ticks) in various power states
system.cache_small.tags.tagsinuse         2904.729060                       # Cycle average of tags in use
system.cache_small.tags.total_refs               3759                       # Total number of references to valid blocks.
system.cache_small.tags.sampled_refs             2527                       # Sample count of references to valid blocks.
system.cache_small.tags.avg_refs             1.487535                       # Average number of references to valid blocks.
system.cache_small.tags.warmup_cycle            76000                       # Cycle when the warmup percentage was hit.
system.cache_small.tags.occ_blocks::.writebacks    42.552151                       # Average occupied blocks per requestor
system.cache_small.tags.occ_blocks::.cpu.inst   476.466002                       # Average occupied blocks per requestor
system.cache_small.tags.occ_blocks::.cpu.data  2385.710907                       # Average occupied blocks per requestor
system.cache_small.tags.occ_percent::.writebacks     0.010389                       # Average percentage of cache occupancy
system.cache_small.tags.occ_percent::.cpu.inst     0.116325                       # Average percentage of cache occupancy
system.cache_small.tags.occ_percent::.cpu.data     0.582449                       # Average percentage of cache occupancy
system.cache_small.tags.occ_percent::total     0.709162                       # Average percentage of cache occupancy
system.cache_small.tags.occ_task_id_blocks::1024         3549                       # Occupied blocks per task id
system.cache_small.tags.age_task_id_blocks_1024::0            6                       # Occupied blocks per task id
system.cache_small.tags.age_task_id_blocks_1024::1           72                       # Occupied blocks per task id
system.cache_small.tags.age_task_id_blocks_1024::2          176                       # Occupied blocks per task id
system.cache_small.tags.age_task_id_blocks_1024::3         3295                       # Occupied blocks per task id
system.cache_small.tags.occ_task_id_percent::1024     0.866455                       # Percentage of cache occupancy per task id
system.cache_small.tags.tag_accesses            27099                       # Number of tag accesses
system.cache_small.tags.data_accesses           27099                       # Number of data accesses
system.cache_small.tags.power_state.pwrStateResidencyTicks::UNDEFINED   4235829000                       # Cumulative time (in ticks) in various power states
system.icache.demand_hits::.cpu.inst          1302015                       # number of demand (read+write) hits
system.icache.demand_hits::total              1302015                       # number of demand (read+write) hits
system.icache.overall_hits::.cpu.inst         1302015                       # number of overall hits
system.icache.overall_hits::total             1302015                       # number of overall hits
system.icache.demand_misses::.cpu.inst          28349                       # number of demand (read+write) misses
system.icache.demand_misses::total              28349                       # number of demand (read+write) misses
system.icache.overall_misses::.cpu.inst         28349                       # number of overall misses
system.icache.overall_misses::total             28349                       # number of overall misses
system.icache.demand_miss_latency::.cpu.inst    595334000                       # number of demand (read+write) miss cycles
system.icache.demand_miss_latency::total    595334000                       # number of demand (read+write) miss cycles
system.icache.overall_miss_latency::.cpu.inst    595334000                       # number of overall miss cycles
system.icache.overall_miss_latency::total    595334000                       # number of overall miss cycles
system.icache.demand_accesses::.cpu.inst      1330364                       # number of demand (read+write) accesses
system.icache.demand_accesses::total          1330364                       # number of demand (read+write) accesses
system.icache.overall_accesses::.cpu.inst      1330364                       # number of overall (read+write) accesses
system.icache.overall_accesses::total         1330364                       # number of overall (read+write) accesses
system.icache.demand_miss_rate::.cpu.inst     0.021309                       # miss rate for demand accesses
system.icache.demand_miss_rate::total        0.021309                       # miss rate for demand accesses
system.icache.overall_miss_rate::.cpu.inst     0.021309                       # miss rate for overall accesses
system.icache.overall_miss_rate::total       0.021309                       # miss rate for overall accesses
system.icache.demand_avg_miss_latency::.cpu.inst 21000.176373                       # average overall miss latency
system.icache.demand_avg_miss_latency::total 21000.176373                       # average overall miss latency
system.icache.overall_avg_miss_latency::.cpu.inst 21000.176373                       # average overall miss latency
system.icache.overall_avg_miss_latency::total 21000.176373                       # average overall miss latency
system.icache.blocked_cycles::no_mshrs              0                       # number of cycles access was blocked
system.icache.blocked_cycles::no_targets            0                       # number of cycles access was blocked
system.icache.blocked::no_mshrs                     0                       # number of cycles access was blocked
system.icache.blocked::no_targets                   0                       # number of cycles access was blocked
system.icache.avg_blocked_cycles::no_mshrs          nan                       # average number of cycles each access was blocked
system.icache.avg_blocked_cycles::no_targets          nan                       # average number of cycles each access was blocked
system.icache.demand_mshr_misses::.cpu.inst        28349                       # number of demand (read+write) MSHR misses
system.icache.demand_mshr_misses::total         28349                       # number of demand (read+write) MSHR misses
system.icache.overall_mshr_misses::.cpu.inst        28349                       # number of overall MSHR misses
system.icache.overall_mshr_misses::total        28349                       # number of overall MSHR misses
system.icache.demand_mshr_miss_latency::.cpu.inst    538636000                       # number of demand (read+write) MSHR miss cycles
system.icache.demand_mshr_miss_latency::total    538636000                       # number of demand (read+write) MSHR miss cycles
system.icache.overall_mshr_miss_latency::.cpu.inst    538636000                       # number of overall MSHR miss cycles
system.icache.overall_mshr_miss_latency::total    538636000                       # number of overall MSHR miss cycles
system.icache.demand_mshr_miss_rate::.cpu.inst     0.021309                       # mshr miss rate for demand accesses
system.icache.demand_mshr_miss_rate::total     0.021309                       # mshr miss rate for demand accesses
system.icache.overall_mshr_miss_rate::.cpu.inst     0.021309                       # mshr miss rate for overall accesses
system.icache.overall_mshr_miss_rate::total     0.021309                       # mshr miss rate for overall accesses
system.icache.demand_avg_mshr_miss_latency::.cpu.inst 19000.176373                       # average overall mshr miss latency
system.icache.demand_avg_mshr_miss_latency::total 19000.176373                       # average overall mshr miss latency
system.icache.overall_avg_mshr_miss_latency::.cpu.inst 19000.176373                       # average overall mshr miss latency
system.icache.overall_avg_mshr_miss_latency::total 19000.176373                       # average overall mshr miss latency
system.icache.replacements                      28093                       # number of replacements
system.icache.ReadReq_hits::.cpu.inst         1302015                       # number of ReadReq hits
system.icache.ReadReq_hits::total             1302015                       # number of ReadReq hits
system.icache.ReadReq_misses::.cpu.inst         28349                       # number of ReadReq misses
system.icache.ReadReq_misses::total             28349                       # number of ReadReq misses
system.icache.ReadReq_miss_latency::.cpu.inst    595334000                       # number of ReadReq miss cycles
system.icache.ReadReq_miss_latency::total    595334000                       # number of ReadReq miss cycles
system.icache.ReadReq_accesses::.cpu.inst      1330364                       # number of ReadReq accesses(hits+misses)
system.icache.ReadReq_accesses::total         1330364                       # number of ReadReq accesses(hits+misses)
system.icache.ReadReq_miss_rate::.cpu.inst     0.021309                       # miss rate for ReadReq accesses
system.icache.ReadReq_miss_rate::total       0.021309                       # miss rate for ReadReq accesses
system.icache.ReadReq_avg_miss_latency::.cpu.inst 21000.176373                       # average ReadReq miss latency
system.icache.ReadReq_avg_miss_latency::total 21000.176373                       # average ReadReq miss latency
system.icache.ReadReq_mshr_misses::.cpu.inst        28349                       # number of ReadReq MSHR misses
system.icache.ReadReq_mshr_misses::total        28349                       # number of ReadReq MSHR misses
system.icache.ReadReq_mshr_miss_latency::.cpu.inst    538636000                       # number of ReadReq MSHR miss cycles
system.icache.ReadReq_mshr_miss_latency::total    538636000                       # number of ReadReq MSHR miss cycles
system.icache.ReadReq_mshr_miss_rate::.cpu.inst     0.021309                       # mshr miss rate for ReadReq accesses
system.icache.ReadReq_mshr_miss_rate::total     0.021309                       # mshr miss rate for ReadReq accesses
system.icache.ReadReq_avg_mshr_miss_latency::.cpu.inst 19000.176373                       # average ReadReq mshr miss latency
system.icache.ReadReq_avg_mshr_miss_latency::total 19000.176373                       # average ReadReq mshr miss latency
system.icache.power_state.pwrStateResidencyTicks::UNDEFINED   4235829000                       # Cumulative time (in ticks) in various power states
system.icache.tags.tagsinuse               251.046627                       # Cycle average of tags in use
system.icache.tags.total_refs                 1127330                       # Total number of references to valid blocks.
system.icache.tags.sampled_refs                 28093                       # Sample count of references to valid blocks.
system.icache.tags.avg_refs                 40.128502                       # Average number of references to valid blocks.
system.icache.tags.warmup_cycle                 82000                       # Cycle when the warmup percentage was hit.
system.icache.tags.occ_blocks::.cpu.inst   251.046627                       # Average occupied blocks per requestor
system.icache.tags.occ_percent::.cpu.inst     0.980651                       # Average percentage of cache occupancy
system.icache.tags.occ_percent::total        0.980651                       # Average percentage of cache occupancy
system.icache.tags.occ_task_id_blocks::1024          256                       # Occupied blocks per task id
system.icache.tags.age_task_id_blocks_1024::0           39                       # Occupied blocks per task id
system.icache.tags.age_task_id_blocks_1024::1           88                       # Occupied blocks per task id
system.icache.tags.age_task_id_blocks_1024::2            6                       # Occupied blocks per task id
system.icache.tags.age_task_id_blocks_1024::3          123                       # Occupied blocks per task id
system.icache.tags.occ_task_id_percent::1024            1                       # Percentage of cache occupancy per task id
system.icache.tags.tag_accesses               1358713                       # Number of tag accesses
system.icache.tags.data_accesses              1358713                       # Number of data accesses
system.icache.tags.power_state.pwrStateResidencyTicks::UNDEFINED   4235829000                       # Cumulative time (in ticks) in various power states
system.membus.trans_dist::ReadReq                5848                       # Transaction distribution
system.membus.trans_dist::ReadResp               5848                       # Transaction distribution
system.membus.trans_dist::WritebackDirty          757                       # Transaction distribution
system.membus.pkt_count_system.cache_small.mem_side::system.mem_ctrl.port        12453                       # Packet count per connected master and slave (bytes)
system.membus.pkt_count_system.cache_small.mem_side::total        12453                       # Packet count per connected master and slave (bytes)
system.membus.pkt_count::total                  12453                       # Packet count per connected master and slave (bytes)
system.membus.pkt_size_system.cache_small.mem_side::system.mem_ctrl.port       422720                       # Cumulative packet size per connected master and slave (bytes)
system.membus.pkt_size_system.cache_small.mem_side::total       422720                       # Cumulative packet size per connected master and slave (bytes)
system.membus.pkt_size::total                  422720                       # Cumulative packet size per connected master and slave (bytes)
system.membus.reqLayer2.occupancy             9633000                       # Layer occupancy (ticks)
system.membus.reqLayer2.utilization               0.2                       # Layer utilization (%)
system.membus.respLayer1.occupancy           31242750                       # Layer occupancy (ticks)
system.membus.respLayer1.utilization              0.7                       # Layer utilization (%)
system.membus.power_state.pwrStateResidencyTicks::UNDEFINED   4235829000                       # Cumulative time (in ticks) in various power states
system.mem_ctrl.bytes_read::.cpu.inst          122944                       # Number of bytes read from this memory
system.mem_ctrl.bytes_read::.cpu.data          251328                       # Number of bytes read from this memory
system.mem_ctrl.bytes_read::total              374272                       # Number of bytes read from this memory
system.mem_ctrl.bytes_inst_read::.cpu.inst       122944                       # Number of instructions bytes read from this memory
system.mem_ctrl.bytes_inst_read::total         122944                       # Number of instructions bytes read from this memory
system.mem_ctrl.bytes_written::.writebacks        48448                       # Number of bytes written to this memory
system.mem_ctrl.bytes_written::total            48448                       # Number of bytes written to this memory
system.mem_ctrl.num_reads::.cpu.inst             1921                       # Number of read requests responded to by this memory
system.mem_ctrl.num_reads::.cpu.data             3927                       # Number of read requests responded to by this memory
system.mem_ctrl.num_reads::total                 5848                       # Number of read requests responded to by this memory
system.mem_ctrl.num_writes::.writebacks           757                       # Number of write requests responded to by this memory
system.mem_ctrl.num_writes::total                 757                       # Number of write requests responded to by this memory
system.mem_ctrl.bw_read::.cpu.inst           29024779                       # Total read bandwidth from this memory (bytes/s)
system.mem_ctrl.bw_read::.cpu.data           59333840                       # Total read bandwidth from this memory (bytes/s)
system.mem_ctrl.bw_read::total               88358619                       # Total read bandwidth from this memory (bytes/s)
system.mem_ctrl.bw_inst_read::.cpu.inst      29024779                       # Instruction read bandwidth from this memory (bytes/s)
system.mem_ctrl.bw_inst_read::total          29024779                       # Instruction read bandwidth from this memory (bytes/s)
system.mem_ctrl.bw_write::.writebacks        11437667                       # Write bandwidth from this memory (bytes/s)
system.mem_ctrl.bw_write::total              11437667                       # Write bandwidth from this memory (bytes/s)
system.mem_ctrl.bw_total::.writebacks        11437667                       # Total bandwidth to/from this memory (bytes/s)
system.mem_ctrl.bw_total::.cpu.inst          29024779                       # Total bandwidth to/from this memory (bytes/s)
system.mem_ctrl.bw_total::.cpu.data          59333840                       # Total bandwidth to/from this memory (bytes/s)
system.mem_ctrl.bw_total::total              99796285                       # Total bandwidth to/from this memory (bytes/s)
system.mem_ctrl.avgPriority_.writebacks::samples       657.00                       # Average QoS priority value for accepted requests
system.mem_ctrl.avgPriority_.cpu.inst::samples      1921.00                       # Average QoS priority value for accepted requests
system.mem_ctrl.avgPriority_.cpu.data::samples      3920.00                       # Average QoS priority value for accepted requests
system.mem_ctrl.priorityMinLatency       0.000000018750                       # per QoS priority minimum request to response latency (s)
system.mem_ctrl.priorityMaxLatency       0.004788790500                       # per QoS priority maximum request to response latency (s)
system.mem_ctrl.numReadWriteTurnArounds            37                       # Number of turnarounds from READ to WRITE
system.mem_ctrl.numWriteReadTurnArounds            37                       # Number of turnarounds from WRITE to READ
system.mem_ctrl.numStayReadState                13504                       # Number of times bus staying in READ state
system.mem_ctrl.numStayWriteState                 593                       # Number of times bus staying in WRITE state
system.mem_ctrl.readReqs                         5848                       # Number of read requests accepted
system.mem_ctrl.writeReqs                         757                       # Number of write requests accepted
system.mem_ctrl.readBursts                       5848                       # Number of DRAM read bursts, including those serviced by the write queue
system.mem_ctrl.writeBursts                       757                       # Number of DRAM write bursts, including those merged in the write queue
system.mem_ctrl.servicedByWrQ                       7                       # Number of DRAM read bursts serviced by the write queue
system.mem_ctrl.mergedWrBursts                    100                       # Number of DRAM write bursts merged with an existing one
system.mem_ctrl.neitherReadNorWriteReqs             0                       # Number of requests that are neither read nor write
system.mem_ctrl.perBankRdBursts::0                445                       # Per bank write bursts
system.mem_ctrl.perBankRdBursts::1                298                       # Per bank write bursts
system.mem_ctrl.perBankRdBursts::2                299                       # Per bank write bursts
system.mem_ctrl.perBankRdBursts::3                222                       # Per bank write bursts
system.mem_ctrl.perBankRdBursts::4                274                       # Per bank write bursts
system.mem_ctrl.perBankRdBursts::5                410                       # Per bank write bursts
system.mem_ctrl.perBankRdBursts::6                482                       # Per bank write bursts
system.mem_ctrl.perBankRdBursts::7                290                       # Per bank write bursts
system.mem_ctrl.perBankRdBursts::8                362                       # Per bank write bursts
system.mem_ctrl.perBankRdBursts::9                232                       # Per bank write bursts
system.mem_ctrl.perBankRdBursts::10               243                       # Per bank write bursts
system.mem_ctrl.perBankRdBursts::11               852                       # Per bank write bursts
system.mem_ctrl.perBankRdBursts::12               311                       # Per bank write bursts
system.mem_ctrl.perBankRdBursts::13               591                       # Per bank write bursts
system.mem_ctrl.perBankRdBursts::14               306                       # Per bank write bursts
system.mem_ctrl.perBankRdBursts::15               224                       # Per bank write bursts
system.mem_ctrl.perBankWrBursts::0                 27                       # Per bank write bursts
system.mem_ctrl.perBankWrBursts::1                 29                       # Per bank write bursts
system.mem_ctrl.perBankWrBursts::2                 44                       # Per bank write bursts
system.mem_ctrl.perBankWrBursts::3                 13                       # Per bank write bursts
system.mem_ctrl.perBankWrBursts::4                 19                       # Per bank write bursts
system.mem_ctrl.perBankWrBursts::5                 71                       # Per bank write bursts
system.mem_ctrl.perBankWrBursts::6                 99                       # Per bank write bursts
system.mem_ctrl.perBankWrBursts::7                 44                       # Per bank write bursts
system.mem_ctrl.perBankWrBursts::8                109                       # Per bank write bursts
system.mem_ctrl.perBankWrBursts::9                 23                       # Per bank write bursts
system.mem_ctrl.perBankWrBursts::10                 4                       # Per bank write bursts
system.mem_ctrl.perBankWrBursts::11                62                       # Per bank write bursts
system.mem_ctrl.perBankWrBursts::12                23                       # Per bank write bursts
system.mem_ctrl.perBankWrBursts::13                45                       # Per bank write bursts
system.mem_ctrl.perBankWrBursts::14                11                       # Per bank write bursts
system.mem_ctrl.perBankWrBursts::15                 7                       # Per bank write bursts
system.mem_ctrl.avgRdQLen                        1.00                       # Average read queue length when enqueuing
system.mem_ctrl.avgWrQLen                       20.12                       # Average write queue length when enqueuing
system.mem_ctrl.totQLat                      52498500                       # Total ticks spent queuing
system.mem_ctrl.totBusLat                    29205000                       # Total ticks spent in databus transfers
system.mem_ctrl.totMemAccLat                162017250                       # Total ticks spent from burst creation until serviced by the DRAM
system.mem_ctrl.avgQLat                       8987.93                       # Average queueing delay per DRAM burst
system.mem_ctrl.avgBusLat                     5000.00                       # Average bus latency per DRAM burst
system.mem_ctrl.avgMemAccLat                 27737.93                       # Average memory access latency per DRAM burst
system.mem_ctrl.numRdRetry                          0                       # Number of times read queue was full causing retry
system.mem_ctrl.numWrRetry                          0                       # Number of times write queue was full causing retry
system.mem_ctrl.readRowHits                      4020                       # Number of row buffer hits during reads
system.mem_ctrl.writeRowHits                      507                       # Number of row buffer hits during writes
system.mem_ctrl.readRowHitRate                  68.82                       # Row buffer hit rate for reads
system.mem_ctrl.writeRowHitRate                 77.17                       # Row buffer hit rate for writes
system.mem_ctrl.readPktSize::0                      0                       # Read request sizes (log2)
system.mem_ctrl.readPktSize::1                      0                       # Read request sizes (log2)
system.mem_ctrl.readPktSize::2                      0                       # Read request sizes (log2)
system.mem_ctrl.readPktSize::3                      0                       # Read request sizes (log2)
system.mem_ctrl.readPktSize::4                      0                       # Read request sizes (log2)
system.mem_ctrl.readPktSize::5                      0                       # Read request sizes (log2)
system.mem_ctrl.readPktSize::6                   5848                       # Read request sizes (log2)
system.mem_ctrl.writePktSize::0                     0                       # Write request sizes (log2)
system.mem_ctrl.writePktSize::1                     0                       # Write request sizes (log2)
system.mem_ctrl.writePktSize::2                     0                       # Write request sizes (log2)
system.mem_ctrl.writePktSize::3                     0                       # Write request sizes (log2)
system.mem_ctrl.writePktSize::4                     0                       # Write request sizes (log2)
system.mem_ctrl.writePktSize::5                     0                       # Write request sizes (log2)
system.mem_ctrl.writePktSize::6                   757                       # Write request sizes (log2)
system.mem_ctrl.rdQLenPdf::0                     5841                       # What read queue length does an incoming req see
system.mem_ctrl.rdQLenPdf::1                        0                       # What read queue length does an incoming req see
system.mem_ctrl.rdQLenPdf::2                        0                       # What read queue length does an incoming req see
system.mem_ctrl.rdQLenPdf::3                        0                       # What read queue length does an incoming req see
system.mem_ctrl.rdQLenPdf::4                        0                       # What read queue length does an incoming req see
system.mem_ctrl.rdQLenPdf::5                        0                       # What read queue length does an incoming req see
system.mem_ctrl.rdQLenPdf::6                        0                       # What read queue length does an incoming req see
system.mem_ctrl.rdQLenPdf::7                        0                       # What read queue length does an incoming req see
system.mem_ctrl.rdQLenPdf::8                        0                       # What read queue length does an incoming req see
system.mem_ctrl.rdQLenPdf::9                        0                       # What read queue length does an incoming req see
system.mem_ctrl.rdQLenPdf::10                       0                       # What read queue length does an incoming req see
system.mem_ctrl.rdQLenPdf::11                       0                       # What read queue length does an incoming req see
system.mem_ctrl.rdQLenPdf::12                       0                       # What read queue length does an incoming req see
system.mem_ctrl.rdQLenPdf::13                       0                       # What read queue length does an incoming req see
system.mem_ctrl.rdQLenPdf::14                       0                       # What read queue length does an incoming req see
system.mem_ctrl.rdQLenPdf::15                       0                       # What read queue length does an incoming req see
system.mem_ctrl.rdQLenPdf::16                       0                       # What read queue length does an incoming req see
system.mem_ctrl.rdQLenPdf::17                       0                       # What read queue length does an incoming req see
system.mem_ctrl.rdQLenPdf::18                       0                       # What read queue length does an incoming req see
system.mem_ctrl.rdQLenPdf::19                       0                       # What read queue length does an incoming req see
system.mem_ctrl.rdQLenPdf::20                       0                       # What read queue length does an incoming req see
system.mem_ctrl.rdQLenPdf::21                       0                       # What read queue length does an incoming req see
system.mem_ctrl.rdQLenPdf::22                       0                       # What read queue length does an incoming req see
system.mem_ctrl.rdQLenPdf::23                       0                       # What read queue length does an incoming req see
system.mem_ctrl.rdQLenPdf::24                       0                       # What read queue length does an incoming req see
system.mem_ctrl.rdQLenPdf::25                       0                       # What read queue length does an incoming req see
system.mem_ctrl.rdQLenPdf::26                       0                       # What read queue length does an incoming req see
system.mem_ctrl.rdQLenPdf::27                       0                       # What read queue length does an incoming req see
system.mem_ctrl.rdQLenPdf::28                       0                       # What read queue length does an incoming req see
system.mem_ctrl.rdQLenPdf::29                       0                       # What read queue length does an incoming req see
system.mem_ctrl.rdQLenPdf::30                       0                       # What read queue length does an incoming req see
system.mem_ctrl.rdQLenPdf::31                       0                       # What read queue length does an incoming req see
system.mem_ctrl.wrQLenPdf::0                        1                       # What write queue length does an incoming req see
system.mem_ctrl.wrQLenPdf::1                        1                       # What write queue length does an incoming req see
system.mem_ctrl.wrQLenPdf::2                        1                       # What write queue length does an incoming req see
system.mem_ctrl.wrQLenPdf::3                        1                       # What write queue length does an incoming req see
system.mem_ctrl.wrQLenPdf::4                        1                       # What write queue length does an incoming req see
system.mem_ctrl.wrQLenPdf::5                        1                       # What write queue length does an incoming req see
system.mem_ctrl.wrQLenPdf::6                        1                       # What write queue length does an incoming req see
system.mem_ctrl.wrQLenPdf::7                        1                       # What write queue length does an incoming req see
system.mem_ctrl.wrQLenPdf::8                        1                       # What write queue length does an incoming req see
system.mem_ctrl.wrQLenPdf::9                        1                       # What write queue length does an incoming req see
system.mem_ctrl.wrQLenPdf::10                       1                       # What write queue length does an incoming req see
system.mem_ctrl.wrQLenPdf::11                       1                       # What write queue length does an incoming req see
system.mem_ctrl.wrQLenPdf::12                       1                       # What write queue length does an incoming req see
system.mem_ctrl.wrQLenPdf::13                       1                       # What write queue length does an incoming req see
system.mem_ctrl.wrQLenPdf::14                       1                       # What write queue length does an incoming req see
system.mem_ctrl.wrQLenPdf::15                      20                       # What write queue length does an incoming req see
system.mem_ctrl.wrQLenPdf::16                      20                       # What write queue length does an incoming req see
system.mem_ctrl.wrQLenPdf::17                      38                       # What write queue length does an incoming req see
system.mem_ctrl.wrQLenPdf::18                      38                       # What write queue length does an incoming req see
system.mem_ctrl.wrQLenPdf::19                      38                       # What write queue length does an incoming req see
system.mem_ctrl.wrQLenPdf::20                      38                       # What write queue length does an incoming req see
system.mem_ctrl.wrQLenPdf::21                      38                       # What write queue length does an incoming req see
system.mem_ctrl.wrQLenPdf::22                      38                       # What write queue length does an incoming req see
system.mem_ctrl.wrQLenPdf::23                      38                       # What write queue length does an incoming req see
system.mem_ctrl.wrQLenPdf::24                      38                       # What write queue length does an incoming req see
system.mem_ctrl.wrQLenPdf::25                      38                       # What write queue length does an incoming req see
system.mem_ctrl.wrQLenPdf::26                      38                       # What write queue length does an incoming req see
system.mem_ctrl.wrQLenPdf::27                      37                       # What write queue length does an incoming req see
system.mem_ctrl.wrQLenPdf::28                      37                       # What write queue length does an incoming req see
system.mem_ctrl.wrQLenPdf::29                      37                       # What write queue length does an incoming req see
system.mem_ctrl.wrQLenPdf::30                      37                       # What write queue length does an incoming req see
system.mem_ctrl.wrQLenPdf::31                      37                       # What write queue length does an incoming req see
system.mem_ctrl.wrQLenPdf::32                      37                       # What write queue length does an incoming req see
system.mem_ctrl.wrQLenPdf::33                       0                       # What write queue length does an incoming req see
system.mem_ctrl.wrQLenPdf::34                       0                       # What write queue length does an incoming req see
system.mem_ctrl.wrQLenPdf::35                       0                       # What write queue length does an incoming req see
system.mem_ctrl.wrQLenPdf::36                       0                       # What write queue length does an incoming req see
system.mem_ctrl.wrQLenPdf::37                       0                       # What write queue length does an incoming req see
system.mem_ctrl.wrQLenPdf::38                       0                       # What write queue length does an incoming req see
system.mem_ctrl.wrQLenPdf::39                       0                       # What write queue length does an incoming req see
system.mem_ctrl.wrQLenPdf::40                       0                       # What write queue length does an incoming req see
system.mem_ctrl.wrQLenPdf::41                       0                       # What write queue length does an incoming req see
system.mem_ctrl.wrQLenPdf::42                       0                       # What write queue length does an incoming req see
system.mem_ctrl.wrQLenPdf::43                       0                       # What write queue length does an incoming req see
system.mem_ctrl.wrQLenPdf::44                       0                       # What write queue length does an incoming req see
system.mem_ctrl.wrQLenPdf::45                       0                       # What write queue length does an incoming req see
system.mem_ctrl.wrQLenPdf::46                       0                       # What write queue length does an incoming req see
system.mem_ctrl.wrQLenPdf::47                       0                       # What write queue length does an incoming req see
system.mem_ctrl.wrQLenPdf::48                       0                       # What write queue length does an incoming req see
system.mem_ctrl.wrQLenPdf::49                       0                       # What write queue length does an incoming req see
system.mem_ctrl.wrQLenPdf::50                       0                       # What write queue length does an incoming req see
system.mem_ctrl.wrQLenPdf::51                       0                       # What write queue length does an incoming req see
system.mem_ctrl.wrQLenPdf::52                       0                       # What write queue length does an incoming req see
system.mem_ctrl.wrQLenPdf::53                       0                       # What write queue length does an incoming req see
system.mem_ctrl.wrQLenPdf::54                       0                       # What write queue length does an incoming req see
system.mem_ctrl.wrQLenPdf::55                       0                       # What write queue length does an incoming req see
system.mem_ctrl.wrQLenPdf::56                       0                       # What write queue length does an incoming req see
system.mem_ctrl.wrQLenPdf::57                       0                       # What write queue length does an incoming req see
system.mem_ctrl.wrQLenPdf::58                       0                       # What write queue length does an incoming req see
system.mem_ctrl.wrQLenPdf::59                       0                       # What write queue length does an incoming req see
system.mem_ctrl.wrQLenPdf::60                       0                       # What write queue length does an incoming req see
system.mem_ctrl.wrQLenPdf::61                       0                       # What write queue length does an incoming req see
system.mem_ctrl.wrQLenPdf::62                       0                       # What write queue length does an incoming req see
system.mem_ctrl.wrQLenPdf::63                       0                       # What write queue length does an incoming req see
system.mem_ctrl.bytesPerActivate::samples         1944                       # Bytes accessed per row activation
system.mem_ctrl.bytesPerActivate::mean     213.037037                       # Bytes accessed per row activation
system.mem_ctrl.bytesPerActivate::gmean    129.533042                       # Bytes accessed per row activation
system.mem_ctrl.bytesPerActivate::stdev    266.802285                       # Bytes accessed per row activation
system.mem_ctrl.bytesPerActivate::0-127          1027     52.83%     52.83% # Bytes accessed per row activation
system.mem_ctrl.bytesPerActivate::128-255          386     19.86%     72.69% # Bytes accessed per row activation
system.mem_ctrl.bytesPerActivate::256-383          272     13.99%     86.68% # Bytes accessed per row activation
system.mem_ctrl.bytesPerActivate::384-511           34      1.75%     88.43% # Bytes accessed per row activation
system.mem_ctrl.bytesPerActivate::512-639           35      1.80%     90.23% # Bytes accessed per row activation
system.mem_ctrl.bytesPerActivate::640-767           19      0.98%     91.20% # Bytes accessed per row activation
system.mem_ctrl.bytesPerActivate::768-895           22      1.13%     92.34% # Bytes accessed per row activation
system.mem_ctrl.bytesPerActivate::896-1023           21      1.08%     93.42% # Bytes accessed per row activation
system.mem_ctrl.bytesPerActivate::1024-1151          128      6.58%    100.00% # Bytes accessed per row activation
system.mem_ctrl.bytesPerActivate::total          1944                       # Bytes accessed per row activation
system.mem_ctrl.rdPerTurnAround::samples           37                       # Reads before turning the bus around for writes
system.mem_ctrl.rdPerTurnAround::mean      155.756757                       # Reads before turning the bus around for writes
system.mem_ctrl.rdPerTurnAround::gmean      46.028357                       # Reads before turning the bus around for writes
system.mem_ctrl.rdPerTurnAround::stdev     474.445548                       # Reads before turning the bus around for writes
system.mem_ctrl.rdPerTurnAround::0-127             30     81.08%     81.08% # Reads before turning the bus around for writes
system.mem_ctrl.rdPerTurnAround::128-255            3      8.11%     89.19% # Reads before turning the bus around for writes
system.mem_ctrl.rdPerTurnAround::256-383            2      5.41%     94.59% # Reads before turning the bus around for writes
system.mem_ctrl.rdPerTurnAround::640-767            1      2.70%     97.30% # Reads before turning the bus around for writes
system.mem_ctrl.rdPerTurnAround::2816-2943            1      2.70%    100.00% # Reads before turning the bus around for writes
system.mem_ctrl.rdPerTurnAround::total             37                       # Reads before turning the bus around for writes
system.mem_ctrl.wrPerTurnAround::samples           37                       # Writes before turning the bus around for reads
system.mem_ctrl.wrPerTurnAround::mean       17.027027                       # Writes before turning the bus around for reads
system.mem_ctrl.wrPerTurnAround::gmean      16.997596                       # Writes before turning the bus around for reads
system.mem_ctrl.wrPerTurnAround::stdev       1.013423                       # Writes before turning the bus around for reads
system.mem_ctrl.wrPerTurnAround::16                18     48.65%     48.65% # Writes before turning the bus around for reads
system.mem_ctrl.wrPerTurnAround::18                19     51.35%    100.00% # Writes before turning the bus around for reads
system.mem_ctrl.wrPerTurnAround::total             37                       # Writes before turning the bus around for reads
system.mem_ctrl.bytesReadDRAM                  373824                       # Total number of bytes read from DRAM
system.mem_ctrl.bytesReadWrQ                      448                       # Total number of bytes read from write queue
system.mem_ctrl.bytesWritten                    40320                       # Total number of bytes written to DRAM
system.mem_ctrl.bytesReadSys                   374272                       # Total read bytes from the system interface side
system.mem_ctrl.bytesWrittenSys                 48448                       # Total written bytes from the system interface side
system.mem_ctrl.avgRdBW                         88.25                       # Average DRAM read bandwidth in MiByte/s
system.mem_ctrl.avgWrBW                          9.52                       # Average achieved write bandwidth in MiByte/s
system.mem_ctrl.avgRdBWSys                      88.36                       # Average system read bandwidth in MiByte/s
system.mem_ctrl.avgWrBWSys                      11.44                       # Average system write bandwidth in MiByte/s
system.mem_ctrl.peakBW                       12800.00                       # Theoretical peak bandwidth in MiByte/s
system.mem_ctrl.busUtil                          0.76                       # Data bus utilization in percentage
system.mem_ctrl.busUtilRead                      0.69                       # Data bus utilization in percentage for reads
system.mem_ctrl.busUtilWrite                     0.07                       # Data bus utilization in percentage for writes
system.mem_ctrl.totGap                     4235189000                       # Total gap between requests
system.mem_ctrl.avgGap                      641209.54                       # Average gap between requests
system.mem_ctrl.masterReadBytes::.cpu.inst       122944                       # Per-master bytes read from memory
system.mem_ctrl.masterReadBytes::.cpu.data       250880                       # Per-master bytes read from memory
system.mem_ctrl.masterWriteBytes::.writebacks        40320                       # Per-master bytes write to memory
system.mem_ctrl.masterReadRate::.cpu.inst 29024778.856747996062                       # Per-master bytes read from memory rate (Bytes/sec)
system.mem_ctrl.masterReadRate::.cpu.data 59228075.543181747198                       # Per-master bytes read from memory rate (Bytes/sec)
system.mem_ctrl.masterWriteRate::.writebacks 9518797.855154208839                       # Per-master bytes write to memory rate (Bytes/sec)
system.mem_ctrl.masterReadAccesses::.cpu.inst         1921                       # Per-master read serviced memory accesses
system.mem_ctrl.masterReadAccesses::.cpu.data         3927                       # Per-master read serviced memory accesses
system.mem_ctrl.masterWriteAccesses::.writebacks          757                       # Per-master write serviced memory accesses
system.mem_ctrl.masterReadTotalLat::.cpu.inst     59567750                       # Per-master read total memory access latency
system.mem_ctrl.masterReadTotalLat::.cpu.data    102449500                       # Per-master read total memory access latency
system.mem_ctrl.masterWriteTotalLat::.writebacks  79056136250                       # Per-master write total memory access latency
system.mem_ctrl.masterReadAvgLat::.cpu.inst     31008.72                       # Per-master read average memory access latency
system.mem_ctrl.masterReadAvgLat::.cpu.data     26088.49                       # Per-master read average memory access latency
system.mem_ctrl.masterWriteAvgLat::.writebacks 104433469.29                       # Per-master write average memory access latency
system.mem_ctrl.pageHitRate                     69.67                       # Row buffer hit rate, read and write combined
system.mem_ctrl.rank1.actEnergy               9160620                       # Energy for activate commands per rank (pJ)
system.mem_ctrl.rank1.preEnergy               4868985                       # Energy for precharge commands per rank (pJ)
system.mem_ctrl.rank1.readEnergy             22283940                       # Energy for read commands per rank (pJ)
system.mem_ctrl.rank1.writeEnergy             1482480                       # Energy for write commands per rank (pJ)
system.mem_ctrl.rank1.refreshEnergy      334364160.000000                       # Energy for refresh commands per rank (pJ)
system.mem_ctrl.rank1.actBackEnergy        1153751820                       # Energy for active background per rank (pJ)
system.mem_ctrl.rank1.preBackEnergy         655030560                       # Energy for precharge background per rank (pJ)
system.mem_ctrl.rank1.actPowerDownEnergy            0                       # Energy for active power-down per rank (pJ)
system.mem_ctrl.rank1.prePowerDownEnergy            0                       # Energy for precharge power-down per rank (pJ)
system.mem_ctrl.rank1.selfRefreshEnergy             0                       # Energy for self refresh per rank (pJ)
system.mem_ctrl.rank1.totalEnergy          2180942565                       # Total energy per rank (pJ)
system.mem_ctrl.rank1.averagePower         514.879747                       # Core power per rank (mW)
system.mem_ctrl.rank1.totalIdleTime                 0                       # Total Idle time Per DRAM Rank
system.mem_ctrl.rank1.memoryStateTime::IDLE   1691381500                       # Time in different power states
system.mem_ctrl.rank1.memoryStateTime::REF    141289000                       # Time in different power states
system.mem_ctrl.rank1.memoryStateTime::SREF            0                       # Time in different power states
system.mem_ctrl.rank1.memoryStateTime::PRE_PDN            0                       # Time in different power states
system.mem_ctrl.rank1.memoryStateTime::ACT   2403158500                       # Time in different power states
system.mem_ctrl.rank1.memoryStateTime::ACT_PDN            0                       # Time in different power states
system.mem_ctrl.rank0.actEnergy               4719540                       # Energy for activate commands per rank (pJ)
system.mem_ctrl.rank0.preEnergy               2508495                       # Energy for precharge commands per rank (pJ)
system.mem_ctrl.rank0.readEnergy             19420800                       # Energy for read commands per rank (pJ)
system.mem_ctrl.rank0.writeEnergy             1806120                       # Energy for write commands per rank (pJ)
system.mem_ctrl.rank0.refreshEnergy      334364160.000000                       # Energy for refresh commands per rank (pJ)
system.mem_ctrl.rank0.actBackEnergy         706696830                       # Energy for active background per rank (pJ)
system.mem_ctrl.rank0.preBackEnergy        1031503200                       # Energy for precharge background per rank (pJ)
system.mem_ctrl.rank0.actPowerDownEnergy            0                       # Energy for active power-down per rank (pJ)
system.mem_ctrl.rank0.prePowerDownEnergy            0                       # Energy for precharge power-down per rank (pJ)
system.mem_ctrl.rank0.selfRefreshEnergy             0                       # Energy for self refresh per rank (pJ)
system.mem_ctrl.rank0.totalEnergy          2101019145                       # Total energy per rank (pJ)
system.mem_ctrl.rank0.averagePower         496.011323                       # Core power per rank (mW)
system.mem_ctrl.rank0.totalIdleTime                 0                       # Total Idle time Per DRAM Rank
system.mem_ctrl.rank0.memoryStateTime::IDLE   2673905750                       # Time in different power states
system.mem_ctrl.rank0.memoryStateTime::REF    141275250                       # Time in different power states
system.mem_ctrl.rank0.memoryStateTime::SREF            0                       # Time in different power states
system.mem_ctrl.rank0.memoryStateTime::PRE_PDN            0                       # Time in different power states
system.mem_ctrl.rank0.memoryStateTime::ACT   1420648000                       # Time in different power states
system.mem_ctrl.rank0.memoryStateTime::ACT_PDN            0                       # Time in different power states
system.mem_ctrl.power_state.pwrStateResidencyTicks::UNDEFINED   4235829000                       # Cumulative time (in ticks) in various power states
system.cache_medium.blocked_cycles::no_mshrs            0                       # number of cycles access was blocked
system.cache_medium.blocked_cycles::no_targets            0                       # number of cycles access was blocked
system.cache_medium.blocked::no_mshrs               0                       # number of cycles access was blocked
system.cache_medium.blocked::no_targets             0                       # number of cycles access was blocked
system.cache_medium.avg_blocked_cycles::no_mshrs          nan                       # average number of cycles each access was blocked
system.cache_medium.avg_blocked_cycles::no_targets          nan                       # average number of cycles each access was blocked
system.cache_medium.replacements                    0                       # number of replacements
system.cache_medium.power_state.pwrStateResidencyTicks::UNDEFINED   4235829000                       # Cumulative time (in ticks) in various power states
system.cache_medium.tags.tagsinuse                  0                       # Cycle average of tags in use
system.cache_medium.tags.total_refs                 0                       # Total number of references to valid blocks.
system.cache_medium.tags.sampled_refs               0                       # Sample count of references to valid blocks.
system.cache_medium.tags.avg_refs                 nan                       # Average number of references to valid blocks.
system.cache_medium.tags.warmup_cycle               0                       # Cycle when the warmup percentage was hit.
system.cache_medium.tags.tag_accesses               0                       # Number of tag accesses
system.cache_medium.tags.data_accesses              0                       # Number of data accesses
system.cache_medium.tags.power_state.pwrStateResidencyTicks::UNDEFINED   4235829000                       # Cumulative time (in ticks) in various power states
system.clk_domain.clock                          1000                       # Clock period in ticks
system.clk_domain.voltage_domain.voltage            1                       # Voltage in Volts
system.dcache.demand_hits::.cpu.data           307355                       # number of demand (read+write) hits
system.dcache.demand_hits::total               307355                       # number of demand (read+write) hits
system.dcache.overall_hits::.cpu.data          307359                       # number of overall hits
system.dcache.overall_hits::total              307359                       # number of overall hits
system.dcache.demand_misses::.cpu.data           6869                       # number of demand (read+write) misses
system.dcache.demand_misses::total               6869                       # number of demand (read+write) misses
system.dcache.overall_misses::.cpu.data          6946                       # number of overall misses
system.dcache.overall_misses::total              6946                       # number of overall misses
system.dcache.demand_miss_latency::.cpu.data    342486000                       # number of demand (read+write) miss cycles
system.dcache.demand_miss_latency::total    342486000                       # number of demand (read+write) miss cycles
system.dcache.overall_miss_latency::.cpu.data    348230000                       # number of overall miss cycles
system.dcache.overall_miss_latency::total    348230000                       # number of overall miss cycles
system.dcache.demand_accesses::.cpu.data       314224                       # number of demand (read+write) accesses
system.dcache.demand_accesses::total           314224                       # number of demand (read+write) accesses
system.dcache.overall_accesses::.cpu.data       314305                       # number of overall (read+write) accesses
system.dcache.overall_accesses::total          314305                       # number of overall (read+write) accesses
system.dcache.demand_miss_rate::.cpu.data     0.021860                       # miss rate for demand accesses
system.dcache.demand_miss_rate::total        0.021860                       # miss rate for demand accesses
system.dcache.overall_miss_rate::.cpu.data     0.022100                       # miss rate for overall accesses
system.dcache.overall_miss_rate::total       0.022100                       # miss rate for overall accesses
system.dcache.demand_avg_miss_latency::.cpu.data 49859.659339                       # average overall miss latency
system.dcache.demand_avg_miss_latency::total 49859.659339                       # average overall miss latency
system.dcache.overall_avg_miss_latency::.cpu.data 50133.890009                       # average overall miss latency
system.dcache.overall_avg_miss_latency::total 50133.890009                       # average overall miss latency
system.dcache.blocked_cycles::no_mshrs              0                       # number of cycles access was blocked
system.dcache.blocked_cycles::no_targets            0                       # number of cycles access was blocked
system.dcache.blocked::no_mshrs                     0                       # number of cycles access was blocked
system.dcache.blocked::no_targets                   0                       # number of cycles access was blocked
system.dcache.avg_blocked_cycles::no_mshrs          nan                       # average number of cycles each access was blocked
system.dcache.avg_blocked_cycles::no_targets          nan                       # average number of cycles each access was blocked
system.dcache.writebacks::.writebacks            5017                       # number of writebacks
system.dcache.writebacks::total                  5017                       # number of writebacks
system.dcache.demand_mshr_misses::.cpu.data         6869                       # number of demand (read+write) MSHR misses
system.dcache.demand_mshr_misses::total          6869                       # number of demand (read+write) MSHR misses
system.dcache.overall_mshr_misses::.cpu.data         6946                       # number of overall MSHR misses
system.dcache.overall_mshr_misses::total         6946                       # number of overall MSHR misses
[...]
system.dcache.tags.age_task_id_blocks_1024::2          115                       # Occupied blocks per task id
system.dcache.tags.age_task_id_blocks_1024::3          102                       # Occupied blocks per task id
system.dcache.tags.occ_task_id_percent::1024            1                       # Percentage of cache occupancy per task id
system.dcache.tags.tag_accesses               2229126                       # Number of tag accesses
system.dcache.tags.data_accesses              2229126                       # Number of data accesses
system.dcache.tags.power_state.pwrStateResidencyTicks::UNDEFINED  28910828000                       # Cumulative time (in ticks) in various power states
system.cache_large.blocked_cycles::no_mshrs            0                       # number of cycles access was blocked
system.cache_large.blocked_cycles::no_targets            0                       # number of cycles access was blocked
system.cache_large.blocked::no_mshrs                0                       # number of cycles access was blocked
system.cache_large.blocked::no_targets              0                       # number of cycles access was blocked
system.cache_large.avg_blocked_cycles::no_mshrs          nan                       # average number of cycles each access was blocked
system.cache_large.avg_blocked_cycles::no_targets          nan                       # average number of cycles each access was blocked
system.cache_large.replacements                     0                       # number of replacements
system.cache_large.power_state.pwrStateResidencyTicks::UNDEFINED  28910828000                       # Cumulative time (in ticks) in various power states
system.cache_large.tags.tagsinuse                   0                       # Cycle average of tags in use
system.cache_large.tags.total_refs                  0                       # Total number of references to valid blocks.
system.cache_large.tags.sampled_refs                0                       # Sample count of references to valid blocks.
system.cache_large.tags.avg_refs                  nan                       # Average number of references to valid blocks.
system.cache_large.tags.warmup_cycle                0                       # Cycle when the warmup percentage was hit.
system.cache_large.tags.tag_accesses                0                       # Number of tag accesses
system.cache_large.tags.data_accesses               0                       # Number of data accesses
system.cache_large.tags.power_state.pwrStateResidencyTicks::UNDEFINED  28910828000                       # Cumulative time (in ticks) in various power states
system.l2cache.demand_hits::.cpu.inst          140965                       # number of demand (read+write) hits
system.l2cache.demand_hits::.cpu.data           18442                       # number of demand (read+write) hits
system.l2cache.demand_hits::total              159407                       # number of demand (read+write) hits
system.l2cache.overall_hits::.cpu.inst         140965                       # number of overall hits
system.l2cache.overall_hits::.cpu.data          18442                       # number of overall hits
system.l2cache.overall_hits::total             159407                       # number of overall hits
system.l2cache.demand_misses::.cpu.inst        105341                       # number of demand (read+write) misses
system.l2cache.demand_misses::.cpu.data         15297                       # number of demand (read+write) misses
system.l2cache.demand_misses::total            120638                       # number of demand (read+write) misses
system.l2cache.overall_misses::.cpu.inst       105341                       # number of overall misses
system.l2cache.overall_misses::.cpu.data        15297                       # number of overall misses
system.l2cache.overall_misses::total           120638                       # number of overall misses
system.l2cache.demand_miss_latency::.cpu.inst   2069483000                       # number of demand (read+write) miss cycles
system.l2cache.demand_miss_latency::.cpu.data    731181000                       # number of demand (read+write) miss cycles
system.l2cache.demand_miss_latency::total   2800664000                       # number of demand (read+write) miss cycles
system.l2cache.overall_miss_latency::.cpu.inst   2069483000                       # number of overall miss cycles
system.l2cache.overall_miss_latency::.cpu.data    731181000                       # number of overall miss cycles
system.l2cache.overall_miss_latency::total   2800664000                       # number of overall miss cycles
system.l2cache.demand_accesses::.cpu.inst       246306                       # number of demand (read+write) accesses
system.l2cache.demand_accesses::.cpu.data        33739                       # number of demand (read+write) accesses
system.l2cache.demand_accesses::total          280045                       # number of demand (read+write) accesses
system.l2cache.overall_accesses::.cpu.inst       246306                       # number of overall (read+write) accesses
system.l2cache.overall_accesses::.cpu.data        33739                       # number of overall (read+write) accesses
system.l2cache.overall_accesses::total         280045                       # number of overall (read+write) accesses
system.l2cache.demand_miss_rate::.cpu.inst     0.427683                       # miss rate for demand accesses
system.l2cache.demand_miss_rate::.cpu.data     0.453392                       # miss rate for demand accesses
system.l2cache.demand_miss_rate::total       0.430781                       # miss rate for demand accesses
system.l2cache.overall_miss_rate::.cpu.inst     0.427683                       # miss rate for overall accesses
system.l2cache.overall_miss_rate::.cpu.data     0.453392                       # miss rate for overall accesses
system.l2cache.overall_miss_rate::total      0.430781                       # miss rate for overall accesses
system.l2cache.demand_avg_miss_latency::.cpu.inst 19645.560608                       # average overall miss latency
system.l2cache.demand_avg_miss_latency::.cpu.data 47798.980192                       # average overall miss latency
system.l2cache.demand_avg_miss_latency::total 23215.437922                       # average overall miss latency
system.l2cache.overall_avg_miss_latency::.cpu.inst 19645.560608                       # average overall miss latency
system.l2cache.overall_avg_miss_latency::.cpu.data 47798.980192                       # average overall miss latency
system.l2cache.overall_avg_miss_latency::total 23215.437922                       # average overall miss latency
system.l2cache.blocked_cycles::no_mshrs             0                       # number of cycles access was blocked
system.l2cache.blocked_cycles::no_targets            0                       # number of cycles access was blocked
system.l2cache.blocked::no_mshrs                    0                       # number of cycles access was blocked
system.l2cache.blocked::no_targets                  0                       # number of cycles access was blocked
system.l2cache.avg_blocked_cycles::no_mshrs          nan                       # average number of cycles each access was blocked
system.l2cache.avg_blocked_cycles::no_targets          nan                       # average number of cycles each access was blocked
system.l2cache.writebacks::.writebacks          12419                       # number of writebacks
system.l2cache.writebacks::total                12419                       # number of writebacks
system.l2cache.demand_mshr_misses::.cpu.inst       105341                       # number of demand (read+write) MSHR misses
system.l2cache.demand_mshr_misses::.cpu.data        15297                       # number of demand (read+write) MSHR misses
system.l2cache.demand_mshr_misses::total       120638                       # number of demand (read+write) MSHR misses
system.l2cache.overall_mshr_misses::.cpu.inst       105341                       # number of overall MSHR misses
system.l2cache.overall_mshr_misses::.cpu.data        15297                       # number of overall MSHR misses
system.l2cache.overall_mshr_misses::total       120638                       # number of overall MSHR misses
system.l2cache.demand_mshr_miss_latency::.cpu.inst   1858801000                       # number of demand (read+write) MSHR miss cycles
system.l2cache.demand_mshr_miss_latency::.cpu.data    700587000                       # number of demand (read+write) MSHR miss cycles
system.l2cache.demand_mshr_miss_latency::total   2559388000                       # number of demand (read+write) MSHR miss cycles
system.l2cache.overall_mshr_miss_latency::.cpu.inst   1858801000                       # number of overall MSHR miss cycles
system.l2cache.overall_mshr_miss_latency::.cpu.data    700587000                       # number of overall MSHR miss cycles
system.l2cache.overall_mshr_miss_latency::total   2559388000                       # number of overall MSHR miss cycles
system.l2cache.demand_mshr_miss_rate::.cpu.inst     0.427683                       # mshr miss rate for demand accesses
system.l2cache.demand_mshr_miss_rate::.cpu.data     0.453392                       # mshr miss rate for demand accesses
system.l2cache.demand_mshr_miss_rate::total     0.430781                       # mshr miss rate for demand accesses
system.l2cache.overall_mshr_miss_rate::.cpu.inst     0.427683                       # mshr miss rate for overall accesses
system.l2cache.overall_mshr_miss_rate::.cpu.data     0.453392                       # mshr miss rate for overall accesses
system.l2cache.overall_mshr_miss_rate::total     0.430781                       # mshr miss rate for overall accesses
system.l2cache.demand_avg_mshr_miss_latency::.cpu.inst 17645.560608                       # average overall mshr miss latency
system.l2cache.demand_avg_mshr_miss_latency::.cpu.data 45798.980192                       # average overall mshr miss latency
system.l2cache.demand_avg_mshr_miss_latency::total 21215.437922                       # average overall mshr miss latency
system.l2cache.overall_avg_mshr_miss_latency::.cpu.inst 17645.560608                       # average overall mshr miss latency
system.l2cache.overall_avg_mshr_miss_latency::.cpu.data 45798.980192                       # average overall mshr miss latency
system.l2cache.overall_avg_mshr_miss_latency::total 21215.437922                       # average overall mshr miss latency
system.l2cache.replacements                    128717                       # number of replacements
system.l2cache.ReadReq_hits::.cpu.inst         140965                       # number of ReadReq hits
system.l2cache.ReadReq_hits::.cpu.data          18442                       # number of ReadReq hits
system.l2cache.ReadReq_hits::total             159407                       # number of ReadReq hits
system.l2cache.ReadReq_misses::.cpu.inst       105341                       # number of ReadReq misses
system.l2cache.ReadReq_misses::.cpu.data        15297                       # number of ReadReq misses
system.l2cache.ReadReq_misses::total           120638                       # number of ReadReq misses
system.l2cache.ReadReq_miss_latency::.cpu.inst   2069483000                       # number of ReadReq miss cycles
system.l2cache.ReadReq_miss_latency::.cpu.data    731181000                       # number of ReadReq miss cycles
system.l2cache.ReadReq_miss_latency::total   2800664000                       # number of ReadReq miss cycles
system.l2cache.ReadReq_accesses::.cpu.inst       246306                       # number of ReadReq accesses(hits+misses)
system.l2cache.ReadReq_accesses::.cpu.data        33739                       # number of ReadReq accesses(hits+misses)
system.l2cache.ReadReq_accesses::total         280045                       # number of ReadReq accesses(hits+misses)
system.l2cache.ReadReq_miss_rate::.cpu.inst     0.427683                       # miss rate for ReadReq accesses
system.l2cache.ReadReq_miss_rate::.cpu.data     0.453392                       # miss rate for ReadReq accesses
system.l2cache.ReadReq_miss_rate::total      0.430781                       # miss rate for ReadReq accesses
system.l2cache.ReadReq_avg_miss_latency::.cpu.inst 19645.560608                       # average ReadReq miss latency
system.l2cache.ReadReq_avg_miss_latency::.cpu.data 47798.980192                       # average ReadReq miss latency
system.l2cache.ReadReq_avg_miss_latency::total 23215.437922                       # average ReadReq miss latency
system.l2cache.ReadReq_mshr_misses::.cpu.inst       105341                       # number of ReadReq MSHR misses
system.l2cache.ReadReq_mshr_misses::.cpu.data        15297                       # number of ReadReq MSHR misses
system.l2cache.ReadReq_mshr_misses::total       120638                       # number of ReadReq MSHR misses
system.l2cache.ReadReq_mshr_miss_latency::.cpu.inst   1858801000                       # number of ReadReq MSHR miss cycles
system.l2cache.ReadReq_mshr_miss_latency::.cpu.data    700587000                       # number of ReadReq MSHR miss cycles
system.l2cache.ReadReq_mshr_miss_latency::total   2559388000                       # number of ReadReq MSHR miss cycles
system.l2cache.ReadReq_mshr_miss_rate::.cpu.inst     0.427683                       # mshr miss rate for ReadReq accesses
system.l2cache.ReadReq_mshr_miss_rate::.cpu.data     0.453392                       # mshr miss rate for ReadReq accesses
system.l2cache.ReadReq_mshr_miss_rate::total     0.430781                       # mshr miss rate for ReadReq accesses
system.l2cache.ReadReq_avg_mshr_miss_latency::.cpu.inst 17645.560608                       # average ReadReq mshr miss latency
system.l2cache.ReadReq_avg_mshr_miss_latency::.cpu.data 45798.980192                       # average ReadReq mshr miss latency
system.l2cache.ReadReq_avg_mshr_miss_latency::total 21215.437922                       # average ReadReq mshr miss latency
system.l2cache.WritebackDirty_hits::.writebacks        19678                       # number of WritebackDirty hits
system.l2cache.WritebackDirty_hits::total        19678                       # number of WritebackDirty hits
system.l2cache.WritebackDirty_accesses::.writebacks        19678                       # number of WritebackDirty accesses(hits+misses)
system.l2cache.WritebackDirty_accesses::total        19678                       # number of WritebackDirty accesses(hits+misses)
system.l2cache.power_state.pwrStateResidencyTicks::UNDEFINED  28910828000                       # Cumulative time (in ticks) in various power states
system.l2cache.tags.tagsinuse              510.527462                       # Cycle average of tags in use
system.l2cache.tags.total_refs                 299723                       # Total number of references to valid blocks.
system.l2cache.tags.sampled_refs               129229                       # Sample count of references to valid blocks.
system.l2cache.tags.avg_refs                 2.319317                       # Average number of references to valid blocks.
system.l2cache.tags.warmup_cycle                78000                       # Cycle when the warmup percentage was hit.
system.l2cache.tags.occ_blocks::.writebacks    96.517160                       # Average occupied blocks per requestor
system.l2cache.tags.occ_blocks::.cpu.inst   209.882866                       # Average occupied blocks per requestor
system.l2cache.tags.occ_blocks::.cpu.data   204.127436                       # Average occupied blocks per requestor
system.l2cache.tags.occ_percent::.writebacks     0.188510                       # Average percentage of cache occupancy
system.l2cache.tags.occ_percent::.cpu.inst     0.409927                       # Average percentage of cache occupancy
system.l2cache.tags.occ_percent::.cpu.data     0.398686                       # Average percentage of cache occupancy
system.l2cache.tags.occ_percent::total       0.997124                       # Average percentage of cache occupancy
system.l2cache.tags.occ_task_id_blocks::1024          512                       # Occupied blocks per task id
system.l2cache.tags.age_task_id_blocks_1024::0           46                       # Occupied blocks per task id
system.l2cache.tags.age_task_id_blocks_1024::1           47                       # Occupied blocks per task id
system.l2cache.tags.age_task_id_blocks_1024::2          179                       # Occupied blocks per task id
system.l2cache.tags.age_task_id_blocks_1024::3          240                       # Occupied blocks per task id
system.l2cache.tags.occ_task_id_percent::1024            1                       # Percentage of cache occupancy per task id
system.l2cache.tags.tag_accesses               428952                       # Number of tag accesses
system.l2cache.tags.data_accesses              428952                       # Number of data accesses
system.l2cache.tags.power_state.pwrStateResidencyTicks::UNDEFINED  28910828000                       # Cumulative time (in ticks) in various power states
system.l2bar.trans_dist::ReadReq               280045                       # Transaction distribution
system.l2bar.trans_dist::ReadResp              280045                       # Transaction distribution
system.l2bar.trans_dist::WritebackDirty         19678                       # Transaction distribution
system.l2bar.pkt_count_system.dcache.mem_side::system.l2cache.cpu_side        87156                       # Packet count per connected master and slave (bytes)
system.l2bar.pkt_count_system.icache.mem_side::system.l2cache.cpu_side       492612                       # Packet count per connected master and slave (bytes)
system.l2bar.pkt_count::total                  579768                       # Packet count per connected master and slave (bytes)
system.l2bar.pkt_size_system.dcache.mem_side::system.l2cache.cpu_side      3418688                       # Cumulative packet size per connected master and slave (bytes)
system.l2bar.pkt_size_system.icache.mem_side::system.l2cache.cpu_side     15763584                       # Cumulative packet size per connected master and slave (bytes)
system.l2bar.pkt_size::total                 19182272                       # Cumulative packet size per connected master and slave (bytes)
system.l2bar.respLayer1.occupancy          1231530000                       # Layer occupancy (ticks)
system.l2bar.respLayer1.utilization               4.3                       # Layer utilization (%)
system.l2bar.reqLayer0.occupancy            378435000                       # Layer occupancy (ticks)
system.l2bar.reqLayer0.utilization                1.3                       # Layer utilization (%)
system.l2bar.respLayer0.occupancy           168695000                       # Layer occupancy (ticks)
system.l2bar.respLayer0.utilization               0.6                       # Layer utilization (%)
system.l2bar.power_state.pwrStateResidencyTicks::UNDEFINED  28910828000                       # Cumulative time (in ticks) in various power states
system.cpu.dtb.walker.power_state.pwrStateResidencyTicks::UNDEFINED  28910828000                       # Cumulative time (in ticks) in various power states
system.cpu.interrupts.clk_domain.clock          16000                       # Clock period in ticks
system.cpu.itb.walker.power_state.pwrStateResidencyTicks::UNDEFINED  28910828000                       # Cumulative time (in ticks) in various power states
system.cpu.power_state.numTransitions               1                       # Number of power state transitions
system.cpu.power_state.pwrStateResidencyTicks::ON  28910828000                       # Cumulative time (in ticks) in various power states

---------- End Simulation Statistics   ----------
