
---------- Begin Simulation Statistics ----------
final_tick                                 3964142000                       # Number of ticks from beginning of simulation (restored from checkpoints and never reset)
host_inst_rate                                  87836                       # Simulator instruction rate (inst/s)
host_mem_usage                               34278780                       # Number of bytes of host memory used
host_op_rate                                   166159                       # Simulator op (including micro ops) rate (op/s)
host_seconds                                    11.39                       # Real time elapsed on the host
host_tick_rate                              348145858                       # Simulator tick rate (ticks/s)
sim_freq                                 1000000000000                       # Frequency of simulated ticks
sim_insts                                     1000116                       # Number of instructions simulated
sim_ops                                       1891944                       # Number of ops (including micro ops) simulated
sim_seconds                                  0.003964                       # Number of seconds simulated
sim_ticks                                  3964142000                       # Number of ticks simulated
system.cpu.Branches                            223455                       # Number of branches fetched
system.cpu.committedInsts                     1000116                       # Number of instructions committed
system.cpu.committedOps                       1891944                       # Number of ops (including micro ops) committed
system.cpu.dtb.rdAccesses                      225137                       # TLB accesses on read requests
system.cpu.dtb.rdMisses                            69                       # TLB misses on read requests
system.cpu.dtb.wrAccesses                      144021                       # TLB accesses on write requests
system.cpu.dtb.wrMisses                            50                       # TLB misses on write requests
system.cpu.idle_fraction                            0                       # Percentage of idle cycles
system.cpu.itb.rdAccesses                           0                       # TLB accesses on read requests
system.cpu.itb.rdMisses                             0                       # TLB misses on read requests
system.cpu.itb.wrAccesses                     1309744                       # TLB accesses on write requests
system.cpu.itb.wrMisses                           156                       # TLB misses on write requests
system.cpu.not_idle_fraction                        1                       # Percentage of non-idle cycles
system.cpu.numCycles                          3964131                       # number of cpu cycles simulated
system.cpu.numWorkItemsCompleted                    0                       # number of work items this cpu completed
system.cpu.numWorkItemsStarted                      0                       # number of work items this cpu started
system.cpu.num_busy_cycles                    3964131                       # Number of busy cycles
system.cpu.num_cc_register_reads              1147006                       # number of times the CC registers were read
system.cpu.num_cc_register_writes              614914                       # number of times the CC registers were written
system.cpu.num_conditional_control_insts       165220                       # number of instructions that are conditional controls
system.cpu.num_fp_alu_accesses                  23266                       # Number of float alu accesses
system.cpu.num_fp_insts                         23266                       # number of float instructions
system.cpu.num_fp_register_reads                37360                       # number of times the floating registers were read
system.cpu.num_fp_register_writes               18378                       # number of times the floating registers were written
system.cpu.num_func_calls                       39472                       # number of times a function call or return occured
system.cpu.num_idle_cycles                          0                       # Number of idle cycles
system.cpu.num_int_alu_accesses               1870217                       # Number of integer alu accesses
system.cpu.num_int_insts                      1870217                       # number of integer instructions
system.cpu.num_int_register_reads             3664632                       # number of times the integer registers were read
system.cpu.num_int_register_writes            1502293                       # number of times the integer registers were written
system.cpu.num_load_insts                      224831                       # Number of load instructions
system.cpu.num_mem_refs                        368785                       # number of memory refs
system.cpu.num_store_insts                     143954                       # Number of store instructions
system.cpu.num_vec_alu_accesses                     0                       # Number of vector alu accesses
system.cpu.num_vec_insts                            0                       # number of vector instructions
system.cpu.num_vec_register_reads                   0                       # number of times the vector registers were read
system.cpu.num_vec_register_writes                  0                       # number of times the vector registers were written
system.cpu.op_class::No_OpClass                  7027      0.37%      0.37% # Class of executed instruction
system.cpu.op_class::IntAlu                   1497877     79.17%     79.54% # Class of executed instruction
system.cpu.op_class::IntMult                      177      0.01%     79.55% # Class of executed instruction
system.cpu.op_class::IntDiv                       210      0.01%     79.56% # Class of executed instruction
system.cpu.op_class::FloatAdd                      77      0.00%     79.57% # Class of executed instruction
system.cpu.op_class::FloatCmp                       0      0.00%     79.57% # Class of executed instruction
system.cpu.op_class::FloatCvt                       0      0.00%     79.57% # Class of executed instruction
system.cpu.op_class::FloatMult                      0      0.00%     79.57% # Class of executed instruction
system.cpu.op_class::FloatMultAcc                   0      0.00%     79.57% # Class of executed instruction
system.cpu.op_class::FloatDiv                       0      0.00%     79.57% # Class of executed instruction
system.cpu.op_class::FloatMisc                      0      0.00%     79.57% # Class of executed instruction
system.cpu.op_class::FloatSqrt                      0      0.00%     79.57% # Class of executed instruction
system.cpu.op_class::SimdAdd                       16      0.00%     79.57% # Class of executed instruction
system.cpu.op_class::SimdAddAcc                     0      0.00%     79.57% # Class of executed instruction
system.cpu.op_class::SimdAlu                     8578      0.45%     80.02% # Class of executed instruction
system.cpu.op_class::SimdCmp                      144      0.01%     80.03% # Class of executed instruction
system.cpu.op_class::SimdCvt                     4448      0.24%     80.26% # Class of executed instruction
system.cpu.op_class::SimdMisc                    4605      0.24%     80.51% # Class of executed instruction
system.cpu.op_class::SimdMult                       0      0.00%     80.51% # Class of executed instruction
system.cpu.op_class::SimdMultAcc                    0      0.00%     80.51% # Class of executed instruction
system.cpu.op_class::SimdShift                      0      0.00%     80.51% # Class of executed instruction
system.cpu.op_class::SimdShiftAcc                   0      0.00%     80.51% # Class of executed instruction
system.cpu.op_class::SimdDiv                        0      0.00%     80.51% # Class of executed instruction
system.cpu.op_class::SimdSqrt                       0      0.00%     80.51% # Class of executed instruction
system.cpu.op_class::SimdFloatAdd                   0      0.00%     80.51% # Class of executed instruction
system.cpu.op_class::SimdFloatAlu                   0      0.00%     80.51% # Class of executed instruction
system.cpu.op_class::SimdFloatCmp                   0      0.00%     80.51% # Class of executed instruction
system.cpu.op_class::SimdFloatCvt                  21      0.00%     80.51% # Class of executed instruction
system.cpu.op_class::SimdFloatDiv                   0      0.00%     80.51% # Class of executed instruction
system.cpu.op_class::SimdFloatMisc                  0      0.00%     80.51% # Class of executed instruction
system.cpu.op_class::SimdFloatMult                  0      0.00%     80.51% # Class of executed instruction
system.cpu.op_class::SimdFloatMultAcc               0      0.00%     80.51% # Class of executed instruction
system.cpu.op_class::SimdFloatSqrt                  0      0.00%     80.51% # Class of executed instruction
system.cpu.op_class::SimdReduceAdd                  0      0.00%     80.51% # Class of executed instruction
system.cpu.op_class::SimdReduceAlu                  0      0.00%     80.51% # Class of executed instruction
system.cpu.op_class::SimdReduceCmp                  0      0.00%     80.51% # Class of executed instruction
system.cpu.op_class::SimdFloatReduceAdd             0      0.00%     80.51% # Class of executed instruction
system.cpu.op_class::SimdFloatReduceCmp             0      0.00%     80.51% # Class of executed instruction
system.cpu.op_class::SimdAes                        0      0.00%     80.51% # Class of executed instruction
system.cpu.op_class::SimdAesMix                     0      0.00%     80.51% # Class of executed instruction
system.cpu.op_class::SimdSha1Hash                   0      0.00%     80.51% # Class of executed instruction
system.cpu.op_class::SimdSha1Hash2                  0      0.00%     80.51% # Class of executed instruction
system.cpu.op_class::SimdSha256Hash                 0      0.00%     80.51% # Class of executed instruction
system.cpu.op_class::SimdSha256Hash2                0      0.00%     80.51% # Class of executed instruction
system.cpu.op_class::SimdShaSigma2                  0      0.00%     80.51% # Class of executed instruction
system.cpu.op_class::SimdShaSigma3                  0      0.00%     80.51% # Class of executed instruction
system.cpu.op_class::SimdPredAlu                    0      0.00%     80.51% # Class of executed instruction
system.cpu.op_class::MemRead                   220484     11.65%     92.16% # Class of executed instruction
system.cpu.op_class::MemWrite                  143237      7.57%     99.73% # Class of executed instruction
system.cpu.op_class::FloatMemRead                4347      0.23%     99.96% # Class of executed instruction
system.cpu.op_class::FloatMemWrite                717      0.04%    100.00% # Class of executed instruction
system.cpu.op_class::IprAccess                      0      0.00%    100.00% # Class of executed instruction
system.cpu.op_class::InstPrefetch                   0      0.00%    100.00% # Class of executed instruction
system.cpu.op_class::total                    1891965                       # Class of executed instruction
system.cpu.workload.numSyscalls                    11                       # Number of system calls
system.dynamic_cache.flushTicks                     0                       # Ticks taken to flush
system.dynamic_cache.numFlushes                     0                       # Number of Flushes Taken
system.cache_small.demand_hits::.cpu.inst         7380                       # number of demand (read+write) hits
system.cache_small.demand_hits::.cpu.data         2640                       # number of demand (read+write) hits
system.cache_small.demand_hits::total           10020                       # number of demand (read+write) hits
system.cache_small.overall_hits::.cpu.inst         7380                       # number of overall hits
system.cache_small.overall_hits::.cpu.data         2640                       # number of overall hits
system.cache_small.overall_hits::total          10020                       # number of overall hits
system.cache_small.demand_misses::.cpu.inst         1946                       # number of demand (read+write) misses
system.cache_small.demand_misses::.cpu.data         1857                       # number of demand (read+write) misses
system.cache_small.demand_misses::total          3803                       # number of demand (read+write) misses
system.cache_small.overall_misses::.cpu.inst         1946                       # number of overall misses
system.cache_small.overall_misses::.cpu.data         1857                       # number of overall misses
system.cache_small.overall_misses::total         3803                       # number of overall misses
system.cache_small.demand_miss_latency::.cpu.inst    116609000                       # number of demand (read+write) miss cycles
system.cache_small.demand_miss_latency::.cpu.data    115065000                       # number of demand (read+write) miss cycles
system.cache_small.demand_miss_latency::total    231674000                       # number of demand (read+write) miss cycles
system.cache_small.overall_miss_latency::.cpu.inst    116609000                       # number of overall miss cycles
system.cache_small.overall_miss_latency::.cpu.data    115065000                       # number of overall miss cycles
system.cache_small.overall_miss_latency::total    231674000                       # number of overall miss cycles
system.cache_small.demand_accesses::.cpu.inst         9326                       # number of demand (read+write) accesses
system.cache_small.demand_accesses::.cpu.data         4497                       # number of demand (read+write) accesses
system.cache_small.demand_accesses::total        13823                       # number of demand (read+write) accesses
system.cache_small.overall_accesses::.cpu.inst         9326                       # number of overall (read+write) accesses
system.cache_small.overall_accesses::.cpu.data         4497                       # number of overall (read+write) accesses
system.cache_small.overall_accesses::total        13823                       # number of overall (read+write) accesses
system.cache_small.demand_miss_rate::.cpu.inst     0.208664                       # miss rate for demand accesses
system.cache_small.demand_miss_rate::.cpu.data     0.412942                       # miss rate for demand accesses
system.cache_small.demand_miss_rate::total     0.275121                       # miss rate for demand accesses
system.cache_small.overall_miss_rate::.cpu.inst     0.208664                       # miss rate for overall accesses
system.cache_small.overall_miss_rate::.cpu.data     0.412942                       # miss rate for overall accesses
system.cache_small.overall_miss_rate::total     0.275121                       # miss rate for overall accesses
system.cache_small.demand_avg_miss_latency::.cpu.inst 59922.404933                       # average overall miss latency
system.cache_small.demand_avg_miss_latency::.cpu.data 61962.843296                       # average overall miss latency
system.cache_small.demand_avg_miss_latency::total 60918.748357                       # average overall miss latency
system.cache_small.overall_avg_miss_latency::.cpu.inst 59922.404933                       # average overall miss latency
system.cache_small.overall_avg_miss_latency::.cpu.data 61962.843296                       # average overall miss latency
system.cache_small.overall_avg_miss_latency::total 60918.748357                       # average overall miss latency
system.cache_small.blocked_cycles::no_mshrs            0                       # number of cycles access was blocked
system.cache_small.blocked_cycles::no_targets            0                       # number of cycles access was blocked
system.cache_small.blocked::no_mshrs                0                       # number of cycles access was blocked
system.cache_small.blocked::no_targets              0                       # number of cycles access was blocked
system.cache_small.avg_blocked_cycles::no_mshrs          nan                       # average number of cycles each access was blocked
system.cache_small.avg_blocked_cycles::no_targets          nan                       # average number of cycles each access was blocked
system.cache_small.writebacks::.writebacks          122                       # number of writebacks
system.cache_small.writebacks::total              122                       # number of writebacks
system.cache_small.demand_mshr_misses::.cpu.inst         1946                       # number of demand (read+write) MSHR misses
system.cache_small.demand_mshr_misses::.cpu.data         1857                       # number of demand (read+write) MSHR misses
system.cache_small.demand_mshr_misses::total         3803                       # number of demand (read+write) MSHR misses
system.cache_small.overall_mshr_misses::.cpu.inst         1946                       # number of overall MSHR misses
system.cache_small.overall_mshr_misses::.cpu.data         1857                       # number of overall MSHR misses
system.cache_small.overall_mshr_misses::total         3803                       # number of overall MSHR misses
system.cache_small.demand_mshr_miss_latency::.cpu.inst    112717000                       # number of demand (read+write) MSHR miss cycles
system.cache_small.demand_mshr_miss_latency::.cpu.data    111351000                       # number of demand (read+write) MSHR miss cycles
system.cache_small.demand_mshr_miss_latency::total    224068000                       # number of demand (read+write) MSHR miss cycles
system.cache_small.overall_mshr_miss_latency::.cpu.inst    112717000                       # number of overall MSHR miss cycles
system.cache_small.overall_mshr_miss_latency::.cpu.data    111351000                       # number of overall MSHR miss cycles
system.cache_small.overall_mshr_miss_latency::total    224068000                       # number of overall MSHR miss cycles
system.cache_small.demand_mshr_miss_rate::.cpu.inst     0.208664                       # mshr miss rate for demand accesses
system.cache_small.demand_mshr_miss_rate::.cpu.data     0.412942                       # mshr miss rate for demand accesses
system.cache_small.demand_mshr_miss_rate::total     0.275121                       # mshr miss rate for demand accesses
system.cache_small.overall_mshr_miss_rate::.cpu.inst     0.208664                       # mshr miss rate for overall accesses
system.cache_small.overall_mshr_miss_rate::.cpu.data     0.412942                       # mshr miss rate for overall accesses
system.cache_small.overall_mshr_miss_rate::total     0.275121                       # mshr miss rate for overall accesses
system.cache_small.demand_avg_mshr_miss_latency::.cpu.inst 57922.404933                       # average overall mshr miss latency
system.cache_small.demand_avg_mshr_miss_latency::.cpu.data 59962.843296                       # average overall mshr miss latency
system.cache_small.demand_avg_mshr_miss_latency::total 58918.748357                       # average overall mshr miss latency
system.cache_small.overall_avg_mshr_miss_latency::.cpu.inst 57922.404933                       # average overall mshr miss latency
system.cache_small.overall_avg_mshr_miss_latency::.cpu.data 59962.843296                       # average overall mshr miss latency
system.cache_small.overall_avg_mshr_miss_latency::total 58918.748357                       # average overall mshr miss latency
system.cache_small.replacements                   498                       # number of replacements
system.cache_small.ReadReq_hits::.cpu.inst         7380                       # number of ReadReq hits
system.cache_small.ReadReq_hits::.cpu.data         2640                       # number of ReadReq hits
system.cache_small.ReadReq_hits::total          10020                       # number of ReadReq hits
system.cache_small.ReadReq_misses::.cpu.inst         1946                       # number of ReadReq misses
system.cache_small.ReadReq_misses::.cpu.data         1857                       # number of ReadReq misses
system.cache_small.ReadReq_misses::total         3803                       # number of ReadReq misses
system.cache_small.ReadReq_miss_latency::.cpu.inst    116609000                       # number of ReadReq miss cycles
system.cache_small.ReadReq_miss_latency::.cpu.data    115065000                       # number of ReadReq miss cycles
system.cache_small.ReadReq_miss_latency::total    231674000                       # number of ReadReq miss cycles
system.cache_small.ReadReq_accesses::.cpu.inst         9326                       # number of ReadReq accesses(hits+misses)
system.cache_small.ReadReq_accesses::.cpu.data         4497                       # number of ReadReq accesses(hits+misses)
system.cache_small.ReadReq_accesses::total        13823                       # number of ReadReq accesses(hits+misses)
system.cache_small.ReadReq_miss_rate::.cpu.inst     0.208664                       # miss rate for ReadReq accesses
system.cache_small.ReadReq_miss_rate::.cpu.data     0.412942                       # miss rate for ReadReq accesses
system.cache_small.ReadReq_miss_rate::total     0.275121                       # miss rate for ReadReq accesses
system.cache_small.ReadReq_avg_miss_latency::.cpu.inst 59922.404933                       # average ReadReq miss latency
system.cache_small.ReadReq_avg_miss_latency::.cpu.data 61962.843296                       # average ReadReq miss latency
system.cache_small.ReadReq_avg_miss_latency::total 60918.748357                       # average ReadReq miss latency
system.cache_small.ReadReq_mshr_misses::.cpu.inst         1946                       # number of ReadReq MSHR misses
system.cache_small.ReadReq_mshr_misses::.cpu.data         1857                       # number of ReadReq MSHR misses
system.cache_small.ReadReq_mshr_misses::total         3803                       # number of ReadReq MSHR misses
system.cache_small.ReadReq_mshr_miss_latency::.cpu.inst    112717000                       # number of ReadReq MSHR miss cycles
system.cache_small.ReadReq_mshr_miss_latency::.cpu.data    111351000                       # number of ReadReq MSHR miss cycles
system.cache_small.ReadReq_mshr_miss_latency::total    224068000                       # number of ReadReq MSHR miss cycles
system.cache_small.ReadReq_mshr_miss_rate::.cpu.inst     0.208664                       # mshr miss rate for ReadReq accesses
system.cache_small.ReadReq_mshr_miss_rate::.cpu.data     0.412942                       # mshr miss rate for ReadReq accesses
system.cache_small.ReadReq_mshr_miss_rate::total     0.275121                       # mshr miss rate for ReadReq accesses
system.cache_small.ReadReq_avg_mshr_miss_latency::.cpu.inst 57922.404933                       # average ReadReq mshr miss latency
system.cache_small.ReadReq_avg_mshr_miss_latency::.cpu.data 59962.843296                       # average ReadReq mshr miss latency
system.cache_small.ReadReq_avg_mshr_miss_latency::total 58918.748357                       # average ReadReq mshr miss latency
system.cache_small.WritebackDirty_hits::.writebacks         2849                       # number of WritebackDirty hits
system.cache_small.WritebackDirty_hits::total         2849                       # number of WritebackDirty hits
system.cache_small.WritebackDirty_accesses::.writebacks         2849                       # number of WritebackDirty accesses(hits+misses)
system.cache_small.WritebackDirty_accesses::total         2849                       # number of WritebackDirty accesses(hits+misses)
system.cache_small.power_state.pwrStateResidencyTicks::UNDEFINED   3964142000                       # Cumulative time (in ticks) in various power states
system.cache_small.tags.tagsinuse         2501.997239                       # Cycle average of tags in use
system.cache_small.tags.total_refs               1005                       # Total number of references to valid blocks.
system.cache_small.tags.sampled_refs              498                       # Sample count of references to valid blocks.
system.cache_small.tags.avg_refs             2.018072                       # Average number of references to valid blocks.
system.cache_small.tags.warmup_cycle            76000                       # Cycle when the warmup percentage was hit.
system.cache_small.tags.occ_blocks::.writebacks     7.272300                       # Average occupied blocks per requestor
system.cache_small.tags.occ_blocks::.cpu.inst  1359.497622                       # Average occupied blocks per requestor
system.cache_small.tags.occ_blocks::.cpu.data  1135.227317                       # Average occupied blocks per requestor
system.cache_small.tags.occ_percent::.writebacks     0.000222                       # Average percentage of cache occupancy
system.cache_small.tags.occ_percent::.cpu.inst     0.041489                       # Average percentage of cache occupancy
system.cache_small.tags.occ_percent::.cpu.data     0.034644                       # Average percentage of cache occupancy
system.cache_small.tags.occ_percent::total     0.076355                       # Average percentage of cache occupancy
system.cache_small.tags.occ_task_id_blocks::1024         3410                       # Occupied blocks per task id
system.cache_small.tags.age_task_id_blocks_1024::0            4                       # Occupied blocks per task id
system.cache_small.tags.age_task_id_blocks_1024::1           23                       # Occupied blocks per task id
system.cache_small.tags.age_task_id_blocks_1024::2          321                       # Occupied blocks per task id
system.cache_small.tags.age_task_id_blocks_1024::3         3062                       # Occupied blocks per task id
system.cache_small.tags.occ_task_id_percent::1024     0.104065                       # Percentage of cache occupancy per task id
system.cache_small.tags.tag_accesses            20580                       # Number of tag accesses
system.cache_small.tags.data_accesses           20580                       # Number of data accesses
system.cache_small.tags.power_state.pwrStateResidencyTicks::UNDEFINED   3964142000                       # Cumulative time (in ticks) in various power states
system.icache.demand_hits::.cpu.inst          1295858                       # number of demand (read+write) hits
system.icache.demand_hits::total              1295858                       # number of demand (read+write) hits
system.icache.overall_hits::.cpu.inst         1295858                       # number of overall hits
system.icache.overall_hits::total             1295858                       # number of overall hits
system.icache.demand_misses::.cpu.inst          13886                       # number of demand (read+write) misses
system.icache.demand_misses::total              13886                       # number of demand (read+write) misses
system.icache.overall_misses::.cpu.inst         13886                       # number of overall misses
system.icache.overall_misses::total             13886                       # number of overall misses
system.icache.demand_miss_latency::.cpu.inst    358639000                       # number of demand (read+write) miss cycles
system.icache.demand_miss_latency::total    358639000                       # number of demand (read+write) miss cycles
system.icache.overall_miss_latency::.cpu.inst    358639000                       # number of overall miss cycles
system.icache.overall_miss_latency::total    358639000                       # number of overall miss cycles
system.icache.demand_accesses::.cpu.inst      1309744                       # number of demand (read+write) accesses
system.icache.demand_accesses::total          1309744                       # number of demand (read+write) accesses
system.icache.overall_accesses::.cpu.inst      1309744                       # number of overall (read+write) accesses
system.icache.overall_accesses::total         1309744                       # number of overall (read+write) accesses
system.icache.demand_miss_rate::.cpu.inst     0.010602                       # miss rate for demand accesses
system.icache.demand_miss_rate::total        0.010602                       # miss rate for demand accesses
system.icache.overall_miss_rate::.cpu.inst     0.010602                       # miss rate for overall accesses
system.icache.overall_miss_rate::total       0.010602                       # miss rate for overall accesses
system.icache.demand_avg_miss_latency::.cpu.inst 25827.380095                       # average overall miss latency
system.icache.demand_avg_miss_latency::total 25827.380095                       # average overall miss latency
system.icache.overall_avg_miss_latency::.cpu.inst 25827.380095                       # average overall miss latency
system.icache.overall_avg_miss_latency::total 25827.380095                       # average overall miss latency
system.icache.blocked_cycles::no_mshrs              0                       # number of cycles access was blocked
system.icache.blocked_cycles::no_targets            0                       # number of cycles access was blocked
system.icache.blocked::no_mshrs                     0                       # number of cycles access was blocked
system.icache.blocked::no_targets                   0                       # number of cycles access was blocked
system.icache.avg_blocked_cycles::no_mshrs          nan                       # average number of cycles each access was blocked
system.icache.avg_blocked_cycles::no_targets          nan                       # average number of cycles each access was blocked
system.icache.demand_mshr_misses::.cpu.inst        13886                       # number of demand (read+write) MSHR misses
system.icache.demand_mshr_misses::total         13886                       # number of demand (read+write) MSHR misses
system.icache.overall_mshr_misses::.cpu.inst        13886                       # number of overall MSHR misses
system.icache.overall_mshr_misses::total        13886                       # number of overall MSHR misses
system.icache.demand_mshr_miss_latency::.cpu.inst    330867000                       # number of demand (read+write) MSHR miss cycles
system.icache.demand_mshr_miss_latency::total    330867000                       # number of demand (read+write) MSHR miss cycles
system.icache.overall_mshr_miss_latency::.cpu.inst    330867000                       # number of overall MSHR miss cycles
system.icache.overall_mshr_miss_latency::total    330867000                       # number of overall MSHR miss cycles
system.icache.demand_mshr_miss_rate::.cpu.inst     0.010602                       # mshr miss rate for demand accesses
system.icache.demand_mshr_miss_rate::total     0.010602                       # mshr miss rate for demand accesses
system.icache.overall_mshr_miss_rate::.cpu.inst     0.010602                       # mshr miss rate for overall accesses
system.icache.overall_mshr_miss_rate::total     0.010602                       # mshr miss rate for overall accesses
system.icache.demand_avg_mshr_miss_latency::.cpu.inst 23827.380095                       # average overall mshr miss latency
system.icache.demand_avg_mshr_miss_latency::total 23827.380095                       # average overall mshr miss latency
system.icache.overall_avg_mshr_miss_latency::.cpu.inst 23827.380095                       # average overall mshr miss latency
system.icache.overall_avg_mshr_miss_latency::total 23827.380095                       # average overall mshr miss latency
system.icache.replacements                      13630                       # number of replacements
system.icache.ReadReq_hits::.cpu.inst         1295858                       # number of ReadReq hits
system.icache.ReadReq_hits::total             1295858                       # number of ReadReq hits
system.icache.ReadReq_misses::.cpu.inst         13886                       # number of ReadReq misses
system.icache.ReadReq_misses::total             13886                       # number of ReadReq misses
system.icache.ReadReq_miss_latency::.cpu.inst    358639000                       # number of ReadReq miss cycles
system.icache.ReadReq_miss_latency::total    358639000                       # number of ReadReq miss cycles
system.icache.ReadReq_accesses::.cpu.inst      1309744                       # number of ReadReq accesses(hits+misses)
system.icache.ReadReq_accesses::total         1309744                       # number of ReadReq accesses(hits+misses)
system.icache.ReadReq_miss_rate::.cpu.inst     0.010602                       # miss rate for ReadReq accesses
system.icache.ReadReq_miss_rate::total       0.010602                       # miss rate for ReadReq accesses
system.icache.ReadReq_avg_miss_latency::.cpu.inst 25827.380095                       # average ReadReq miss latency
system.icache.ReadReq_avg_miss_latency::total 25827.380095                       # average ReadReq miss latency
system.icache.ReadReq_mshr_misses::.cpu.inst        13886                       # number of ReadReq MSHR misses
system.icache.ReadReq_mshr_misses::total        13886                       # number of ReadReq MSHR misses
system.icache.ReadReq_mshr_miss_latency::.cpu.inst    330867000                       # number of ReadReq MSHR miss cycles
system.icache.ReadReq_mshr_miss_latency::total    330867000                       # number of ReadReq MSHR miss cycles
system.icache.ReadReq_mshr_miss_rate::.cpu.inst     0.010602                       # mshr miss rate for ReadReq accesses
system.icache.ReadReq_mshr_miss_rate::total     0.010602                       # mshr miss rate for ReadReq accesses
system.icache.ReadReq_avg_mshr_miss_latency::.cpu.inst 23827.380095                       # average ReadReq mshr miss latency
system.icache.ReadReq_avg_mshr_miss_latency::total 23827.380095                       # average ReadReq mshr miss latency
system.icache.power_state.pwrStateResidencyTicks::UNDEFINED   3964142000                       # Cumulative time (in ticks) in various power states
system.icache.tags.tagsinuse               251.636524                       # Cycle average of tags in use
system.icache.tags.total_refs                 1220337                       # Total number of references to valid blocks.
system.icache.tags.sampled_refs                 13630                       # Sample count of references to valid blocks.
system.icache.tags.avg_refs                 89.533162                       # Average number of references to valid blocks.
system.icache.tags.warmup_cycle                 82000                       # Cycle when the warmup percentage was hit.
system.icache.tags.occ_blocks::.cpu.inst   251.636524                       # Average occupied blocks per requestor
system.icache.tags.occ_percent::.cpu.inst     0.982955                       # Average percentage of cache occupancy
system.icache.tags.occ_percent::total        0.982955                       # Average percentage of cache occupancy
system.icache.tags.occ_task_id_blocks::1024          256                       # Occupied blocks per task id
system.icache.tags.age_task_id_blocks_1024::0           13                       # Occupied blocks per task id
system.icache.tags.age_task_id_blocks_1024::1           35                       # Occupied blocks per task id
system.icache.tags.age_task_id_blocks_1024::2          166                       # Occupied blocks per task id
system.icache.tags.age_task_id_blocks_1024::3           42                       # Occupied blocks per task id
system.icache.tags.occ_task_id_percent::1024            1                       # Percentage of cache occupancy per task id
system.icache.tags.tag_accesses               1323630                       # Number of tag accesses
system.icache.tags.data_accesses              1323630                       # Number of data accesses
system.icache.tags.power_state.pwrStateResidencyTicks::UNDEFINED   3964142000                       # Cumulative time (in ticks) in various power states
system.membus.trans_dist::ReadReq                3803                       # Transaction distribution
system.membus.trans_dist::ReadResp               3803                       # Transaction distribution
system.membus.trans_dist::WritebackDirty          122                       # Transaction distribution
system.membus.pkt_count_system.cache_small.mem_side::system.mem_ctrl.port         7728                       # Packet count per connected master and slave (bytes)
system.membus.pkt_count_system.cache_small.mem_side::total         7728                       # Packet count per connected master and slave (bytes)
system.membus.pkt_count::total                   7728                       # Packet count per connected master and slave (bytes)
system.membus.pkt_size_system.cache_small.mem_side::system.mem_ctrl.port       251200                       # Cumulative packet size per connected master and slave (bytes)
system.membus.pkt_size_system.cache_small.mem_side::total       251200                       # Cumulative packet size per connected master and slave (bytes)
system.membus.pkt_size::total                  251200                       # Cumulative packet size per connected master and slave (bytes)
system.membus.reqLayer2.occupancy             4413000                       # Layer occupancy (ticks)
system.membus.reqLayer2.utilization               0.1                       # Layer utilization (%)
system.membus.respLayer1.occupancy           20314750                       # Layer occupancy (ticks)
system.membus.respLayer1.utilization              0.5                       # Layer utilization (%)
system.membus.power_state.pwrStateResidencyTicks::UNDEFINED   3964142000                       # Cumulative time (in ticks) in various power states
system.mem_ctrl.bytes_read::.cpu.inst          124544                       # Number of bytes read from this memory
system.mem_ctrl.bytes_read::.cpu.data          118848                       # Number of bytes read from this memory
system.mem_ctrl.bytes_read::total              243392                       # Number of bytes read from this memory
system.mem_ctrl.bytes_inst_read::.cpu.inst       124544                       # Number of instructions bytes read from this memory
system.mem_ctrl.bytes_inst_read::total         124544                       # Number of instructions bytes read from this memory
system.mem_ctrl.bytes_written::.writebacks         7808                       # Number of bytes written to this memory
system.mem_ctrl.bytes_written::total             7808                       # Number of bytes written to this memory
system.mem_ctrl.num_reads::.cpu.inst             1946                       # Number of read requests responded to by this memory
system.mem_ctrl.num_reads::.cpu.data             1857                       # Number of read requests responded to by this memory
system.mem_ctrl.num_reads::total                 3803                       # Number of read requests responded to by this memory
system.mem_ctrl.num_writes::.writebacks           122                       # Number of write requests responded to by this memory
system.mem_ctrl.num_writes::total                 122                       # Number of write requests responded to by this memory
system.mem_ctrl.bw_read::.cpu.inst           31417643                       # Total read bandwidth from this memory (bytes/s)
system.mem_ctrl.bw_read::.cpu.data           29980763                       # Total read bandwidth from this memory (bytes/s)
system.mem_ctrl.bw_read::total               61398406                       # Total read bandwidth from this memory (bytes/s)
system.mem_ctrl.bw_inst_read::.cpu.inst      31417643                       # Instruction read bandwidth from this memory (bytes/s)
system.mem_ctrl.bw_inst_read::total          31417643                       # Instruction read bandwidth from this memory (bytes/s)
system.mem_ctrl.bw_write::.writebacks         1969657                       # Write bandwidth from this memory (bytes/s)
system.mem_ctrl.bw_write::total               1969657                       # Write bandwidth from this memory (bytes/s)
system.mem_ctrl.bw_total::.writebacks         1969657                       # Total bandwidth to/from this memory (bytes/s)
system.mem_ctrl.bw_total::.cpu.inst          31417643                       # Total bandwidth to/from this memory (bytes/s)
system.mem_ctrl.bw_total::.cpu.data          29980763                       # Total bandwidth to/from this memory (bytes/s)
system.mem_ctrl.bw_total::total              63368063                       # Total bandwidth to/from this memory (bytes/s)
system.mem_ctrl.avgPriority_.writebacks::samples        52.00                       # Average QoS priority value for accepted requests
system.mem_ctrl.avgPriority_.cpu.inst::samples      1946.00                       # Average QoS priority value for accepted requests
system.mem_ctrl.avgPriority_.cpu.data::samples      1829.00                       # Average QoS priority value for accepted requests
system.mem_ctrl.priorityMinLatency       0.000000018750                       # per QoS priority minimum request to response latency (s)
system.mem_ctrl.priorityMaxLatency       0.006144402500                       # per QoS priority maximum request to response latency (s)
system.mem_ctrl.numReadWriteTurnArounds             2                       # Number of turnarounds from READ to WRITE
system.mem_ctrl.numWriteReadTurnArounds             2                       # Number of turnarounds from WRITE to READ
system.mem_ctrl.numStayReadState                 8688                       # Number of times bus staying in READ state
system.mem_ctrl.numStayWriteState                  32                       # Number of times bus staying in WRITE state
system.mem_ctrl.readReqs                         3803                       # Number of read requests accepted
system.mem_ctrl.writeReqs                         122                       # Number of write requests accepted
system.mem_ctrl.readBursts                       3803                       # Number of DRAM read bursts, including those serviced by the write queue
system.mem_ctrl.writeBursts                       122                       # Number of DRAM write bursts, including those merged in the write queue
system.mem_ctrl.servicedByWrQ                      28                       # Number of DRAM read bursts serviced by the write queue
system.mem_ctrl.mergedWrBursts                     70                       # Number of DRAM write bursts merged with an existing one
system.mem_ctrl.neitherReadNorWriteReqs             0                       # Number of requests that are neither read nor write
system.mem_ctrl.perBankRdBursts::0                491                       # Per bank write bursts
system.mem_ctrl.perBankRdBursts::1                307                       # Per bank write bursts
system.mem_ctrl.perBankRdBursts::2                234                       # Per bank write bursts
system.mem_ctrl.perBankRdBursts::3                218                       # Per bank write bursts
system.mem_ctrl.perBankRdBursts::4                176                       # Per bank write bursts
system.mem_ctrl.perBankRdBursts::5                 84                       # Per bank write bursts
system.mem_ctrl.perBankRdBursts::6                273                       # Per bank write bursts
system.mem_ctrl.perBankRdBursts::7                122                       # Per bank write bursts
system.mem_ctrl.perBankRdBursts::8                148                       # Per bank write bursts
system.mem_ctrl.perBankRdBursts::9                224                       # Per bank write bursts
system.mem_ctrl.perBankRdBursts::10               110                       # Per bank write bursts
system.mem_ctrl.perBankRdBursts::11               200                       # Per bank write bursts
system.mem_ctrl.perBankRdBursts::12               191                       # Per bank write bursts
system.mem_ctrl.perBankRdBursts::13               224                       # Per bank write bursts
system.mem_ctrl.perBankRdBursts::14               340                       # Per bank write bursts
system.mem_ctrl.perBankRdBursts::15               433                       # Per bank write bursts
system.mem_ctrl.perBankWrBursts::0                  3                       # Per bank write bursts
system.mem_ctrl.perBankWrBursts::1                  0                       # Per bank write bursts
system.mem_ctrl.perBankWrBursts::2                  0                       # Per bank write bursts
system.mem_ctrl.perBankWrBursts::3                  0                       # Per bank write bursts
system.mem_ctrl.perBankWrBursts::4                  0                       # Per bank write bursts
system.mem_ctrl.perBankWrBursts::5                  0                       # Per bank write bursts
system.mem_ctrl.perBankWrBursts::6                 19                       # Per bank write bursts
system.mem_ctrl.perBankWrBursts::7                  4                       # Per bank write bursts
system.mem_ctrl.perBankWrBursts::8                  6                       # Per bank write bursts
system.mem_ctrl.perBankWrBursts::9                  2                       # Per bank write bursts
system.mem_ctrl.perBankWrBursts::10                 0                       # Per bank write bursts
system.mem_ctrl.perBankWrBursts::11                 0                       # Per bank write bursts
system.mem_ctrl.perBankWrBursts::12                 0                       # Per bank write bursts
system.mem_ctrl.perBankWrBursts::13                 0                       # Per bank write bursts
system.mem_ctrl.perBankWrBursts::14                 0                       # Per bank write bursts
system.mem_ctrl.perBankWrBursts::15                 0                       # Per bank write bursts
system.mem_ctrl.avgRdQLen                        1.01                       # Average read queue length when enqueuing
system.mem_ctrl.avgWrQLen                       17.95                       # Average write queue length when enqueuing
system.mem_ctrl.totQLat                      34371500                       # Total ticks spent queuing
system.mem_ctrl.totBusLat                    18875000                       # Total ticks spent in databus transfers
system.mem_ctrl.totMemAccLat                105152750                       # Total ticks spent from burst creation until serviced by the DRAM
system.mem_ctrl.avgQLat                       9105.03                       # Average queueing delay per DRAM burst
system.mem_ctrl.avgBusLat                     5000.00                       # Average bus latency per DRAM burst
system.mem_ctrl.avgMemAccLat                 27855.03                       # Average memory access latency per DRAM burst
system.mem_ctrl.numRdRetry                          0                       # Number of times read queue was full causing retry
system.mem_ctrl.numWrRetry                          0                       # Number of times write queue was full causing retry
system.mem_ctrl.readRowHits                      2488                       # Number of row buffer hits during reads
system.mem_ctrl.writeRowHits                       28                       # Number of row buffer hits during writes
system.mem_ctrl.readRowHitRate                  65.91                       # Row buffer hit rate for reads
system.mem_ctrl.writeRowHitRate                 53.85                       # Row buffer hit rate for writes
system.mem_ctrl.readPktSize::0                      0                       # Read request sizes (log2)
system.mem_ctrl.readPktSize::1                      0                       # Read request sizes (log2)
system.mem_ctrl.readPktSize::2                      0                       # Read request sizes (log2)
system.mem_ctrl.readPktSize::3                      0                       # Read request sizes (log2)
system.mem_ctrl.readPktSize::4                      0                       # Read request sizes (log2)
system.mem_ctrl.readPktSize::5                      0                       # Read request sizes (log2)
system.mem_ctrl.readPktSize::6                   3803                       # Read request sizes (log2)
system.mem_ctrl.writePktSize::0                     0                       # Write request sizes (log2)
system.mem_ctrl.writePktSize::1                     0                       # Write request sizes (log2)
system.mem_ctrl.writePktSize::2                     0                       # Write request sizes (log2)
system.mem_ctrl.writePktSize::3                     0                       # Write request sizes (log2)
system.mem_ctrl.writePktSize::4                     0                       # Write request sizes (log2)
system.mem_ctrl.writePktSize::5                     0                       # Write request sizes (log2)
system.mem_ctrl.writePktSize::6                   122                       # Write request sizes (log2)
system.mem_ctrl.rdQLenPdf::0                     3769                       # What read queue length does an incoming req see
system.mem_ctrl.rdQLenPdf::1                        6                       # What read queue length does an incoming req see
system.mem_ctrl.rdQLenPdf::2                        0                       # What read queue length does an incoming req see
system.mem_ctrl.rdQLenPdf::3                        0                       # What read queue length does an incoming req see
system.mem_ctrl.rdQLenPdf::4                        0                       # What read queue length does an incoming req see
system.mem_ctrl.rdQLenPdf::5                        0                       # What read queue length does an incoming req see
system.mem_ctrl.rdQLenPdf::6                        0                       # What read queue length does an incoming req see
system.mem_ctrl.rdQLenPdf::7                        0                       # What read queue length does an incoming req see
system.mem_ctrl.rdQLenPdf::8                        0                       # What read queue length does an incoming req see
system.mem_ctrl.rdQLenPdf::9                        0                       # What read queue length does an incoming req see
system.mem_ctrl.rdQLenPdf::10                       0                       # What read queue length does an incoming req see
system.mem_ctrl.rdQLenPdf::11                       0                       # What read queue length does an incoming req see
system.mem_ctrl.rdQLenPdf::12                       0                       # What read queue length does an incoming req see
system.mem_ctrl.rdQLenPdf::13                       0                       # What read queue length does an incoming req see
system.mem_ctrl.rdQLenPdf::14                       0                       # What read queue length does an incoming req see
system.mem_ctrl.rdQLenPdf::15                       0                       # What read queue length does an incoming req see
system.mem_ctrl.rdQLenPdf::16                       0                       # What read queue length does an incoming req see
system.mem_ctrl.rdQLenPdf::17                       0                       # What read queue length does an incoming req see
system.mem_ctrl.rdQLenPdf::18                       0                       # What read queue length does an incoming req see
system.mem_ctrl.rdQLenPdf::19                       0                       # What read queue length does an incoming req see
system.mem_ctrl.rdQLenPdf::20                       0                       # What read queue length does an incoming req see
system.mem_ctrl.rdQLenPdf::21                       0                       # What read queue length does an incoming req see
system.mem_ctrl.rdQLenPdf::22                       0                       # What read queue length does an incoming req see
system.mem_ctrl.rdQLenPdf::23                       0                       # What read queue length does an incoming req see
system.mem_ctrl.rdQLenPdf::24                       0                       # What read queue length does an incoming req see
system.mem_ctrl.rdQLenPdf::25                       0                       # What read queue length does an incoming req see
system.mem_ctrl.rdQLenPdf::26                       0                       # What read queue length does an incoming req see
system.mem_ctrl.rdQLenPdf::27                       0                       # What read queue length does an incoming req see
system.mem_ctrl.rdQLenPdf::28                       0                       # What read queue length does an incoming req see
system.mem_ctrl.rdQLenPdf::29                       0                       # What read queue length does an incoming req see
system.mem_ctrl.rdQLenPdf::30                       0                       # What read queue length does an incoming req see
system.mem_ctrl.rdQLenPdf::31                       0                       # What read queue length does an incoming req see
system.mem_ctrl.wrQLenPdf::0                        1                       # What write queue length does an incoming req see
system.mem_ctrl.wrQLenPdf::1                        1                       # What write queue length does an incoming req see
system.mem_ctrl.wrQLenPdf::2                        1                       # What write queue length does an incoming req see
system.mem_ctrl.wrQLenPdf::3                        1                       # What write queue length does an incoming req see
system.mem_ctrl.wrQLenPdf::4                        1                       # What write queue length does an incoming req see
system.mem_ctrl.wrQLenPdf::5                        1                       # What write queue length does an incoming req see
system.mem_ctrl.wrQLenPdf::6                        1                       # What write queue length does an incoming req see
system.mem_ctrl.wrQLenPdf::7                        1                       # What write queue length does an incoming req see
system.mem_ctrl.wrQLenPdf::8                        1                       # What write queue length does an incoming req see
system.mem_ctrl.wrQLenPdf::9                        1                       # What write queue length does an incoming req see
system.mem_ctrl.wrQLenPdf::10                       1                       # What write queue length does an incoming req see
system.mem_ctrl.wrQLenPdf::11                       1                       # What write queue length does an incoming req see
system.mem_ctrl.wrQLenPdf::12                       1                       # What write queue length does an incoming req see
system.mem_ctrl.wrQLenPdf::13                       1                       # What write queue length does an incoming req see
system.mem_ctrl.wrQLenPdf::14                       1                       # What write queue length does an incoming req see
system.mem_ctrl.wrQLenPdf::15                       2                       # What write queue length does an incoming req see
system.mem_ctrl.wrQLenPdf::16                       2                       # What write queue length does an incoming req see
system.mem_ctrl.wrQLenPdf::17                       3                       # What write queue length does an incoming req see
system.mem_ctrl.wrQLenPdf::18                       2                       # What write queue length does an incoming req see
system.mem_ctrl.wrQLenPdf::19                       2                       # What write queue length does an incoming req see
system.mem_ctrl.wrQLenPdf::20                       2                       # What write queue length does an incoming req see
system.mem_ctrl.wrQLenPdf::21                       2                       # What write queue length does an incoming req see
system.mem_ctrl.wrQLenPdf::22                       2                       # What write queue length does an incoming req see
system.mem_ctrl.wrQLenPdf::23                       2                       # What write queue length does an incoming req see
system.mem_ctrl.wrQLenPdf::24                       2                       # What write queue length does an incoming req see
system.mem_ctrl.wrQLenPdf::25                       2                       # What write queue length does an incoming req see
system.mem_ctrl.wrQLenPdf::26                       2                       # What write queue length does an incoming req see
system.mem_ctrl.wrQLenPdf::27                       2                       # What write queue length does an incoming req see
system.mem_ctrl.wrQLenPdf::28                       2                       # What write queue length does an incoming req see
system.mem_ctrl.wrQLenPdf::29                       2                       # What write queue length does an incoming req see
system.mem_ctrl.wrQLenPdf::30                       2                       # What write queue length does an incoming req see
system.mem_ctrl.wrQLenPdf::31                       2                       # What write queue length does an incoming req see
system.mem_ctrl.wrQLenPdf::32                       2                       # What write queue length does an incoming req see
system.mem_ctrl.wrQLenPdf::33                       0                       # What write queue length does an incoming req see
system.mem_ctrl.wrQLenPdf::34                       0                       # What write queue length does an incoming req see
system.mem_ctrl.wrQLenPdf::35                       0                       # What write queue length does an incoming req see
system.mem_ctrl.wrQLenPdf::36                       0                       # What write queue length does an incoming req see
system.mem_ctrl.wrQLenPdf::37                       0                       # What write queue length does an incoming req see
system.mem_ctrl.wrQLenPdf::38                       0                       # What write queue length does an incoming req see
system.mem_ctrl.wrQLenPdf::39                       0                       # What write queue length does an incoming req see
system.mem_ctrl.wrQLenPdf::40                       0                       # What write queue length does an incoming req see
system.mem_ctrl.wrQLenPdf::41                       0                       # What write queue length does an incoming req see
system.mem_ctrl.wrQLenPdf::42                       0                       # What write queue length does an incoming req see
system.mem_ctrl.wrQLenPdf::43                       0                       # What write queue length does an incoming req see
system.mem_ctrl.wrQLenPdf::44                       0                       # What write queue length does an incoming req see
system.mem_ctrl.wrQLenPdf::45                       0                       # What write queue length does an incoming req see
system.mem_ctrl.wrQLenPdf::46                       0                       # What write queue length does an incoming req see
system.mem_ctrl.wrQLenPdf::47                       0                       # What write queue length does an incoming req see
system.mem_ctrl.wrQLenPdf::48                       0                       # What write queue length does an incoming req see
system.mem_ctrl.wrQLenPdf::49                       0                       # What write queue length does an incoming req see
system.mem_ctrl.wrQLenPdf::50                       0                       # What write queue length does an incoming req see
system.mem_ctrl.wrQLenPdf::51                       0                       # What write queue length does an incoming req see
system.mem_ctrl.wrQLenPdf::52                       0                       # What write queue length does an incoming req see
system.mem_ctrl.wrQLenPdf::53                       0                       # What write queue length does an incoming req see
system.mem_ctrl.wrQLenPdf::54                       0                       # What write queue length does an incoming req see
system.mem_ctrl.wrQLenPdf::55                       0                       # What write queue length does an incoming req see
system.mem_ctrl.wrQLenPdf::56                       0                       # What write queue length does an incoming req see
system.mem_ctrl.wrQLenPdf::57                       0                       # What write queue length does an incoming req see
system.mem_ctrl.wrQLenPdf::58                       0                       # What write queue length does an incoming req see
system.mem_ctrl.wrQLenPdf::59                       0                       # What write queue length does an incoming req see
system.mem_ctrl.wrQLenPdf::60                       0                       # What write queue length does an incoming req see
system.mem_ctrl.wrQLenPdf::61                       0                       # What write queue length does an incoming req see
system.mem_ctrl.wrQLenPdf::62                       0                       # What write queue length does an incoming req see
system.mem_ctrl.wrQLenPdf::63                       0                       # What write queue length does an incoming req see
system.mem_ctrl.bytesPerActivate::samples         1293                       # Bytes accessed per row activation
system.mem_ctrl.bytesPerActivate::mean     188.535189                       # Bytes accessed per row activation
system.mem_ctrl.bytesPerActivate::gmean    140.257479                       # Bytes accessed per row activation
system.mem_ctrl.bytesPerActivate::stdev    171.894339                       # Bytes accessed per row activation
system.mem_ctrl.bytesPerActivate::0-127           482     37.28%     37.28% # Bytes accessed per row activation
system.mem_ctrl.bytesPerActivate::128-255          436     33.72%     71.00% # Bytes accessed per row activation
system.mem_ctrl.bytesPerActivate::256-383          239     18.48%     89.48% # Bytes accessed per row activation
system.mem_ctrl.bytesPerActivate::384-511           63      4.87%     94.35% # Bytes accessed per row activation
system.mem_ctrl.bytesPerActivate::512-639           27      2.09%     96.44% # Bytes accessed per row activation
system.mem_ctrl.bytesPerActivate::640-767           14      1.08%     97.53% # Bytes accessed per row activation
system.mem_ctrl.bytesPerActivate::768-895            8      0.62%     98.14% # Bytes accessed per row activation
system.mem_ctrl.bytesPerActivate::896-1023           11      0.85%     98.99% # Bytes accessed per row activation
system.mem_ctrl.bytesPerActivate::1024-1151           13      1.01%    100.00% # Bytes accessed per row activation
system.mem_ctrl.bytesPerActivate::total          1293                       # Bytes accessed per row activation
system.mem_ctrl.rdPerTurnAround::samples            2                       # Reads before turning the bus around for writes
system.mem_ctrl.rdPerTurnAround::mean            1876                       # Reads before turning the bus around for writes
system.mem_ctrl.rdPerTurnAround::gmean    1068.462447                       # Reads before turning the bus around for writes
system.mem_ctrl.rdPerTurnAround::stdev    2180.717313                       # Reads before turning the bus around for writes
system.mem_ctrl.rdPerTurnAround::256-383            1     50.00%     50.00% # Reads before turning the bus around for writes
system.mem_ctrl.rdPerTurnAround::3328-3455            1     50.00%    100.00% # Reads before turning the bus around for writes
system.mem_ctrl.rdPerTurnAround::total              2                       # Reads before turning the bus around for writes
system.mem_ctrl.wrPerTurnAround::samples            2                       # Writes before turning the bus around for reads
system.mem_ctrl.wrPerTurnAround::mean              17                       # Writes before turning the bus around for reads
system.mem_ctrl.wrPerTurnAround::gmean      16.970563                       # Writes before turning the bus around for reads
system.mem_ctrl.wrPerTurnAround::stdev       1.414214                       # Writes before turning the bus around for reads
system.mem_ctrl.wrPerTurnAround::16                 1     50.00%     50.00% # Writes before turning the bus around for reads
system.mem_ctrl.wrPerTurnAround::18                 1     50.00%    100.00% # Writes before turning the bus around for reads
system.mem_ctrl.wrPerTurnAround::total              2                       # Writes before turning the bus around for reads
system.mem_ctrl.bytesReadDRAM                  241600                       # Total number of bytes read from DRAM
system.mem_ctrl.bytesReadWrQ                     1792                       # Total number of bytes read from write queue
system.mem_ctrl.bytesWritten                     2176                       # Total number of bytes written to DRAM
system.mem_ctrl.bytesReadSys                   243392                       # Total read bytes from the system interface side
system.mem_ctrl.bytesWrittenSys                  7808                       # Total written bytes from the system interface side
system.mem_ctrl.avgRdBW                         60.95                       # Average DRAM read bandwidth in MiByte/s
system.mem_ctrl.avgWrBW                          0.55                       # Average achieved write bandwidth in MiByte/s
system.mem_ctrl.avgRdBWSys                      61.40                       # Average system read bandwidth in MiByte/s
system.mem_ctrl.avgWrBWSys                       1.97                       # Average system write bandwidth in MiByte/s
system.mem_ctrl.peakBW                       12800.00                       # Theoretical peak bandwidth in MiByte/s
system.mem_ctrl.busUtil                          0.48                       # Data bus utilization in percentage
system.mem_ctrl.busUtilRead                      0.48                       # Data bus utilization in percentage for reads
system.mem_ctrl.busUtilWrite                     0.00                       # Data bus utilization in percentage for writes
system.mem_ctrl.totGap                     3960028000                       # Total gap between requests
system.mem_ctrl.avgGap                     1008924.33                       # Average gap between requests
system.mem_ctrl.masterReadBytes::.cpu.inst       124544                       # Per-master bytes read from memory
system.mem_ctrl.masterReadBytes::.cpu.data       117056                       # Per-master bytes read from memory
system.mem_ctrl.masterWriteBytes::.writebacks         2176                       # Per-master bytes write to memory
system.mem_ctrl.masterReadRate::.cpu.inst 31417643.464840561152                       # Per-master bytes read from memory rate (Bytes/sec)
system.mem_ctrl.masterReadRate::.cpu.data 29528710.121887657791                       # Per-master bytes read from memory rate (Bytes/sec)
system.mem_ctrl.masterWriteRate::.writebacks 548920.800516227726                       # Per-master bytes write to memory rate (Bytes/sec)
system.mem_ctrl.masterReadAccesses::.cpu.inst         1946                       # Per-master read serviced memory accesses
system.mem_ctrl.masterReadAccesses::.cpu.data         1857                       # Per-master read serviced memory accesses
system.mem_ctrl.masterWriteAccesses::.writebacks          122                       # Per-master write serviced memory accesses
system.mem_ctrl.masterReadTotalLat::.cpu.inst     51738250                       # Per-master read total memory access latency
system.mem_ctrl.masterReadTotalLat::.cpu.data     53414500                       # Per-master read total memory access latency
system.mem_ctrl.masterWriteTotalLat::.writebacks  58859796000                       # Per-master write total memory access latency
system.mem_ctrl.masterReadAvgLat::.cpu.inst     26586.97                       # Per-master read average memory access latency
system.mem_ctrl.masterReadAvgLat::.cpu.data     28763.87                       # Per-master read average memory access latency
system.mem_ctrl.masterWriteAvgLat::.writebacks 482457344.26                       # Per-master write average memory access latency
system.mem_ctrl.pageHitRate                     65.74                       # Row buffer hit rate, read and write combined
system.mem_ctrl.rank1.actEnergy               4755240                       # Energy for activate commands per rank (pJ)
system.mem_ctrl.rank1.preEnergy               2527470                       # Energy for precharge commands per rank (pJ)
system.mem_ctrl.rank1.readEnergy             13351800                       # Energy for read commands per rank (pJ)
system.mem_ctrl.rank1.writeEnergy               41760                       # Energy for write commands per rank (pJ)
system.mem_ctrl.rank1.refreshEnergy      312851760.000000                       # Energy for refresh commands per rank (pJ)
system.mem_ctrl.rank1.actBackEnergy        1015594650                       # Energy for active background per rank (pJ)
system.mem_ctrl.rank1.preBackEnergy         666993120                       # Energy for precharge background per rank (pJ)
system.mem_ctrl.rank1.actPowerDownEnergy            0                       # Energy for active power-down per rank (pJ)
system.mem_ctrl.rank1.prePowerDownEnergy            0                       # Energy for precharge power-down per rank (pJ)
system.mem_ctrl.rank1.selfRefreshEnergy             0                       # Energy for self refresh per rank (pJ)
system.mem_ctrl.rank1.totalEnergy          2016115800                       # Total energy per rank (pJ)
system.mem_ctrl.rank1.averagePower         508.588189                       # Core power per rank (mW)
system.mem_ctrl.rank1.totalIdleTime                 0                       # Total Idle time Per DRAM Rank
system.mem_ctrl.rank1.memoryStateTime::IDLE   1724535250                       # Time in different power states
system.mem_ctrl.rank1.memoryStateTime::REF    132340000                       # Time in different power states
system.mem_ctrl.rank1.memoryStateTime::SREF            0                       # Time in different power states
system.mem_ctrl.rank1.memoryStateTime::PRE_PDN            0                       # Time in different power states
system.mem_ctrl.rank1.memoryStateTime::ACT   2107266750                       # Time in different power states
system.mem_ctrl.rank1.memoryStateTime::ACT_PDN            0                       # Time in different power states
system.mem_ctrl.rank0.actEnergy               4476780                       # Energy for activate commands per rank (pJ)
system.mem_ctrl.rank0.preEnergy               2379465                       # Energy for precharge commands per rank (pJ)
system.mem_ctrl.rank0.readEnergy             13601700                       # Energy for read commands per rank (pJ)
system.mem_ctrl.rank0.writeEnergy              135720                       # Energy for write commands per rank (pJ)
system.mem_ctrl.rank0.refreshEnergy      312851760.000000                       # Energy for refresh commands per rank (pJ)
system.mem_ctrl.rank0.actBackEnergy         669769950                       # Energy for active background per rank (pJ)
system.mem_ctrl.rank0.preBackEnergy         958213920                       # Energy for precharge background per rank (pJ)
system.mem_ctrl.rank0.actPowerDownEnergy            0                       # Energy for active power-down per rank (pJ)
system.mem_ctrl.rank0.prePowerDownEnergy            0                       # Energy for precharge power-down per rank (pJ)
system.mem_ctrl.rank0.selfRefreshEnergy             0                       # Energy for self refresh per rank (pJ)
system.mem_ctrl.rank0.totalEnergy          1961429295                       # Total energy per rank (pJ)
system.mem_ctrl.rank0.averagePower         494.792895                       # Core power per rank (mW)
system.mem_ctrl.rank0.totalIdleTime                 0                       # Total Idle time Per DRAM Rank
system.mem_ctrl.rank0.memoryStateTime::IDLE   2484539250                       # Time in different power states
system.mem_ctrl.rank0.memoryStateTime::REF    132340000                       # Time in different power states
system.mem_ctrl.rank0.memoryStateTime::SREF            0                       # Time in different power states
system.mem_ctrl.rank0.memoryStateTime::PRE_PDN            0                       # Time in different power states
system.mem_ctrl.rank0.memoryStateTime::ACT   1347262750                       # Time in different power states
system.mem_ctrl.rank0.memoryStateTime::ACT_PDN            0                       # Time in different power states
system.mem_ctrl.power_state.pwrStateResidencyTicks::UNDEFINED   3964142000                       # Cumulative time (in ticks) in various power states
system.cache_medium.blocked_cycles::no_mshrs            0                       # number of cycles access was blocked
system.cache_medium.blocked_cycles::no_targets            0                       # number of cycles access was blocked
system.cache_medium.blocked::no_mshrs               0                       # number of cycles access was blocked
system.cache_medium.blocked::no_targets             0                       # number of cycles access was blocked
system.cache_medium.avg_blocked_cycles::no_mshrs          nan                       # average number of cycles each access was blocked
system.cache_medium.avg_blocked_cycles::no_targets          nan                       # average number of cycles each access was blocked
system.cache_medium.replacements                    0                       # number of replacements
system.cache_medium.power_state.pwrStateResidencyTicks::UNDEFINED   3964142000                       # Cumulative time (in ticks) in various power states
system.cache_medium.tags.tagsinuse                  0                       # Cycle average of tags in use
system.cache_medium.tags.total_refs                 0                       # Total number of references to valid blocks.
system.cache_medium.tags.sampled_refs               0                       # Sample count of references to valid blocks.
system.cache_medium.tags.avg_refs                 nan                       # Average number of references to valid blocks.
system.cache_medium.tags.warmup_cycle               0                       # Cycle when the warmup percentage was hit.
system.cache_medium.tags.tag_accesses               0                       # Number of tag accesses
system.cache_medium.tags.data_accesses              0                       # Number of data accesses
system.cache_medium.tags.power_state.pwrStateResidencyTicks::UNDEFINED   3964142000                       # Cumulative time (in ticks) in various power states
system.clk_domain.clock                          1000                       # Clock period in ticks
system.clk_domain.voltage_domain.voltage            1                       # Voltage in Volts
system.dcache.demand_hits::.cpu.data           359992                       # number of demand (read+write) hits
system.dcache.demand_hits::total               359992                       # number of demand (read+write) hits
system.dcache.overall_hits::.cpu.data          360067                       # number of overall hits
system.dcache.overall_hits::total              360067                       # number of overall hits
system.dcache.demand_misses::.cpu.data           9070                       # number of demand (read+write) misses
system.dcache.demand_misses::total               9070                       # number of demand (read+write) misses
system.dcache.overall_misses::.cpu.data          9070                       # number of overall misses
system.dcache.overall_misses::total              9070                       # number of overall misses
system.dcache.demand_miss_latency::.cpu.data    265510000                       # number of demand (read+write) miss cycles
system.dcache.demand_miss_latency::total    265510000                       # number of demand (read+write) miss cycles
system.dcache.overall_miss_latency::.cpu.data    265510000                       # number of overall miss cycles
system.dcache.overall_miss_latency::total    265510000                       # number of overall miss cycles
system.dcache.demand_accesses::.cpu.data       369062                       # number of demand (read+write) accesses
system.dcache.demand_accesses::total           369062                       # number of demand (read+write) accesses
system.dcache.overall_accesses::.cpu.data       369137                       # number of overall (read+write) accesses
system.dcache.overall_accesses::total          369137                       # number of overall (read+write) accesses
system.dcache.demand_miss_rate::.cpu.data     0.024576                       # miss rate for demand accesses
system.dcache.demand_miss_rate::total        0.024576                       # miss rate for demand accesses
system.dcache.overall_miss_rate::.cpu.data     0.024571                       # miss rate for overall accesses
system.dcache.overall_miss_rate::total       0.024571                       # miss rate for overall accesses
system.dcache.demand_avg_miss_latency::.cpu.data 29273.428886                       # average overall miss latency
system.dcache.demand_avg_miss_latency::total 29273.428886                       # average overall miss latency
system.dcache.overall_avg_miss_latency::.cpu.data 29273.428886                       # average overall miss latency
system.dcache.overall_avg_miss_latency::total 29273.428886                       # average overall miss latency
system.dcache.blocked_cycles::no_mshrs              0                       # number of cycles access was blocked
system.dcache.blocked_cycles::no_targets            0                       # number of cycles access was blocked
system.dcache.blocked::no_mshrs                     0                       # number of cycles access was blocked
system.dcache.blocked::no_targets                   0                       # number of cycles access was blocked
system.dcache.avg_blocked_cycles::no_mshrs          nan                       # average number of cycles each access was blocked
system.dcache.avg_blocked_cycles::no_targets          nan                       # average number of cycles each access was blocked
system.dcache.writebacks::.writebacks            3855                       # number of writebacks
system.dcache.writebacks::total                  3855                       # number of writebacks
system.dcache.demand_mshr_misses::.cpu.data         9070                       # number of demand (read+write) MSHR misses
system.dcache.demand_mshr_misses::total          9070                       # number of demand (read+write) MSHR misses
system.dcache.overall_mshr_misses::.cpu.data         9070                       # number of overall MSHR misses
system.dcache.overall_mshr_misses::total         9070                       # number of overall MSHR misses
system.dcache.demand_mshr_miss_latency::.cpu.data    247372000                       # number of demand (read+write) MSHR miss cycles
system.dcache.demand_mshr_miss_latency::total    247372000                       # number of demand (read+write) MSHR miss cycles
system.dcache.overall_mshr_miss_latency::.cpu.data    247372000                       # number of overall MSHR miss cycles
[...]
system.dcache.tags.age_task_id_blocks_1024::2          107                       # Occupied blocks per task id
system.dcache.tags.age_task_id_blocks_1024::3           94                       # Occupied blocks per task id
system.dcache.tags.occ_task_id_percent::1024            1                       # Percentage of cache occupancy per task id
system.dcache.tags.tag_accesses               2705588                       # Number of tag accesses
system.dcache.tags.data_accesses              2705588                       # Number of data accesses
system.dcache.tags.power_state.pwrStateResidencyTicks::UNDEFINED  27100048000                       # Cumulative time (in ticks) in various power states
system.cache_large.blocked_cycles::no_mshrs            0                       # number of cycles access was blocked
system.cache_large.blocked_cycles::no_targets            0                       # number of cycles access was blocked
system.cache_large.blocked::no_mshrs                0                       # number of cycles access was blocked
system.cache_large.blocked::no_targets              0                       # number of cycles access was blocked
system.cache_large.avg_blocked_cycles::no_mshrs          nan                       # average number of cycles each access was blocked
system.cache_large.avg_blocked_cycles::no_targets          nan                       # average number of cycles each access was blocked
system.cache_large.replacements                     0                       # number of replacements
system.cache_large.power_state.pwrStateResidencyTicks::UNDEFINED  27100048000                       # Cumulative time (in ticks) in various power states
system.cache_large.tags.tagsinuse                   0                       # Cycle average of tags in use
system.cache_large.tags.total_refs                  0                       # Total number of references to valid blocks.
system.cache_large.tags.sampled_refs                0                       # Sample count of references to valid blocks.
system.cache_large.tags.avg_refs                  nan                       # Average number of references to valid blocks.
system.cache_large.tags.warmup_cycle                0                       # Cycle when the warmup percentage was hit.
system.cache_large.tags.tag_accesses                0                       # Number of tag accesses
system.cache_large.tags.data_accesses               0                       # Number of data accesses
system.cache_large.tags.power_state.pwrStateResidencyTicks::UNDEFINED  27100048000                       # Cumulative time (in ticks) in various power states
system.l2cache.demand_hits::.cpu.inst           33765                       # number of demand (read+write) hits
system.l2cache.demand_hits::.cpu.data           36170                       # number of demand (read+write) hits
system.l2cache.demand_hits::total               69935                       # number of demand (read+write) hits
system.l2cache.overall_hits::.cpu.inst          33765                       # number of overall hits
system.l2cache.overall_hits::.cpu.data          36170                       # number of overall hits
system.l2cache.overall_hits::total              69935                       # number of overall hits
system.l2cache.demand_misses::.cpu.inst         78567                       # number of demand (read+write) misses
system.l2cache.demand_misses::.cpu.data         38298                       # number of demand (read+write) misses
system.l2cache.demand_misses::total            116865                       # number of demand (read+write) misses
system.l2cache.overall_misses::.cpu.inst        78567                       # number of overall misses
system.l2cache.overall_misses::.cpu.data        38298                       # number of overall misses
system.l2cache.overall_misses::total           116865                       # number of overall misses
system.l2cache.demand_miss_latency::.cpu.inst   1260844000                       # number of demand (read+write) miss cycles
system.l2cache.demand_miss_latency::.cpu.data    833273000                       # number of demand (read+write) miss cycles
system.l2cache.demand_miss_latency::total   2094117000                       # number of demand (read+write) miss cycles
system.l2cache.overall_miss_latency::.cpu.inst   1260844000                       # number of overall miss cycles
system.l2cache.overall_miss_latency::.cpu.data    833273000                       # number of overall miss cycles
system.l2cache.overall_miss_latency::total   2094117000                       # number of overall miss cycles
system.l2cache.demand_accesses::.cpu.inst       112332                       # number of demand (read+write) accesses
system.l2cache.demand_accesses::.cpu.data        74468                       # number of demand (read+write) accesses
system.l2cache.demand_accesses::total          186800                       # number of demand (read+write) accesses
system.l2cache.overall_accesses::.cpu.inst       112332                       # number of overall (read+write) accesses
system.l2cache.overall_accesses::.cpu.data        74468                       # number of overall (read+write) accesses
system.l2cache.overall_accesses::total         186800                       # number of overall (read+write) accesses
system.l2cache.demand_miss_rate::.cpu.inst     0.699418                       # miss rate for demand accesses
system.l2cache.demand_miss_rate::.cpu.data     0.514288                       # miss rate for demand accesses
system.l2cache.demand_miss_rate::total       0.625616                       # miss rate for demand accesses
system.l2cache.overall_miss_rate::.cpu.inst     0.699418                       # miss rate for overall accesses
system.l2cache.overall_miss_rate::.cpu.data     0.514288                       # miss rate for overall accesses
system.l2cache.overall_miss_rate::total      0.625616                       # miss rate for overall accesses
system.l2cache.demand_avg_miss_latency::.cpu.inst 16048.009979                       # average overall miss latency
system.l2cache.demand_avg_miss_latency::.cpu.data 21757.611364                       # average overall miss latency
system.l2cache.demand_avg_miss_latency::total 17919.111796                       # average overall miss latency
system.l2cache.overall_avg_miss_latency::.cpu.inst 16048.009979                       # average overall miss latency
system.l2cache.overall_avg_miss_latency::.cpu.data 21757.611364                       # average overall miss latency
system.l2cache.overall_avg_miss_latency::total 17919.111796                       # average overall miss latency
system.l2cache.blocked_cycles::no_mshrs             0                       # number of cycles access was blocked
system.l2cache.blocked_cycles::no_targets            0                       # number of cycles access was blocked
system.l2cache.blocked::no_mshrs                    0                       # number of cycles access was blocked
system.l2cache.blocked::no_targets                  0                       # number of cycles access was blocked
system.l2cache.avg_blocked_cycles::no_mshrs          nan                       # average number of cycles each access was blocked
system.l2cache.avg_blocked_cycles::no_targets          nan                       # average number of cycles each access was blocked
system.l2cache.writebacks::.writebacks          17017                       # number of writebacks
system.l2cache.writebacks::total                17017                       # number of writebacks
system.l2cache.demand_mshr_misses::.cpu.inst        78567                       # number of demand (read+write) MSHR misses
system.l2cache.demand_mshr_misses::.cpu.data        38298                       # number of demand (read+write) MSHR misses
system.l2cache.demand_mshr_misses::total       116865                       # number of demand (read+write) MSHR misses
system.l2cache.overall_mshr_misses::.cpu.inst        78567                       # number of overall MSHR misses
system.l2cache.overall_mshr_misses::.cpu.data        38298                       # number of overall MSHR misses
system.l2cache.overall_mshr_misses::total       116865                       # number of overall MSHR misses
system.l2cache.demand_mshr_miss_latency::.cpu.inst   1103710000                       # number of demand (read+write) MSHR miss cycles
system.l2cache.demand_mshr_miss_latency::.cpu.data    756677000                       # number of demand (read+write) MSHR miss cycles
system.l2cache.demand_mshr_miss_latency::total   1860387000                       # number of demand (read+write) MSHR miss cycles
system.l2cache.overall_mshr_miss_latency::.cpu.inst   1103710000                       # number of overall MSHR miss cycles
system.l2cache.overall_mshr_miss_latency::.cpu.data    756677000                       # number of overall MSHR miss cycles
system.l2cache.overall_mshr_miss_latency::total   1860387000                       # number of overall MSHR miss cycles
system.l2cache.demand_mshr_miss_rate::.cpu.inst     0.699418                       # mshr miss rate for demand accesses
system.l2cache.demand_mshr_miss_rate::.cpu.data     0.514288                       # mshr miss rate for demand accesses
system.l2cache.demand_mshr_miss_rate::total     0.625616                       # mshr miss rate for demand accesses
system.l2cache.overall_mshr_miss_rate::.cpu.inst     0.699418                       # mshr miss rate for overall accesses
system.l2cache.overall_mshr_miss_rate::.cpu.data     0.514288                       # mshr miss rate for overall accesses
system.l2cache.overall_mshr_miss_rate::total     0.625616                       # mshr miss rate for overall accesses
system.l2cache.demand_avg_mshr_miss_latency::.cpu.inst 14048.009979                       # average overall mshr miss latency
system.l2cache.demand_avg_mshr_miss_latency::.cpu.data 19757.611364                       # average overall mshr miss latency
system.l2cache.demand_avg_mshr_miss_latency::total 15919.111796                       # average overall mshr miss latency
system.l2cache.overall_avg_mshr_miss_latency::.cpu.inst 14048.009979                       # average overall mshr miss latency
system.l2cache.overall_avg_mshr_miss_latency::.cpu.data 19757.611364                       # average overall mshr miss latency
system.l2cache.overall_avg_mshr_miss_latency::total 15919.111796                       # average overall mshr miss latency
system.l2cache.replacements                    131074                       # number of replacements
system.l2cache.ReadReq_hits::.cpu.inst          33765                       # number of ReadReq hits
system.l2cache.ReadReq_hits::.cpu.data          36170                       # number of ReadReq hits
system.l2cache.ReadReq_hits::total              69935                       # number of ReadReq hits
system.l2cache.ReadReq_misses::.cpu.inst        78567                       # number of ReadReq misses
system.l2cache.ReadReq_misses::.cpu.data        38298                       # number of ReadReq misses
system.l2cache.ReadReq_misses::total           116865                       # number of ReadReq misses
system.l2cache.ReadReq_miss_latency::.cpu.inst   1260844000                       # number of ReadReq miss cycles
system.l2cache.ReadReq_miss_latency::.cpu.data    833273000                       # number of ReadReq miss cycles
system.l2cache.ReadReq_miss_latency::total   2094117000                       # number of ReadReq miss cycles
system.l2cache.ReadReq_accesses::.cpu.inst       112332                       # number of ReadReq accesses(hits+misses)
system.l2cache.ReadReq_accesses::.cpu.data        74468                       # number of ReadReq accesses(hits+misses)
system.l2cache.ReadReq_accesses::total         186800                       # number of ReadReq accesses(hits+misses)
system.l2cache.ReadReq_miss_rate::.cpu.inst     0.699418                       # miss rate for ReadReq accesses
system.l2cache.ReadReq_miss_rate::.cpu.data     0.514288                       # miss rate for ReadReq accesses
system.l2cache.ReadReq_miss_rate::total      0.625616                       # miss rate for ReadReq accesses
system.l2cache.ReadReq_avg_miss_latency::.cpu.inst 16048.009979                       # average ReadReq miss latency
system.l2cache.ReadReq_avg_miss_latency::.cpu.data 21757.611364                       # average ReadReq miss latency
system.l2cache.ReadReq_avg_miss_latency::total 17919.111796                       # average ReadReq miss latency
system.l2cache.ReadReq_mshr_misses::.cpu.inst        78567                       # number of ReadReq MSHR misses
system.l2cache.ReadReq_mshr_misses::.cpu.data        38298                       # number of ReadReq MSHR misses
system.l2cache.ReadReq_mshr_misses::total       116865                       # number of ReadReq MSHR misses
system.l2cache.ReadReq_mshr_miss_latency::.cpu.inst   1103710000                       # number of ReadReq MSHR miss cycles
system.l2cache.ReadReq_mshr_miss_latency::.cpu.data    756677000                       # number of ReadReq MSHR miss cycles
system.l2cache.ReadReq_mshr_miss_latency::total   1860387000                       # number of ReadReq MSHR miss cycles
system.l2cache.ReadReq_mshr_miss_rate::.cpu.inst     0.699418                       # mshr miss rate for ReadReq accesses
system.l2cache.ReadReq_mshr_miss_rate::.cpu.data     0.514288                       # mshr miss rate for ReadReq accesses
system.l2cache.ReadReq_mshr_miss_rate::total     0.625616                       # mshr miss rate for ReadReq accesses
system.l2cache.ReadReq_avg_mshr_miss_latency::.cpu.inst 14048.009979                       # average ReadReq mshr miss latency
system.l2cache.ReadReq_avg_mshr_miss_latency::.cpu.data 19757.611364                       # average ReadReq mshr miss latency
system.l2cache.ReadReq_avg_mshr_miss_latency::total 15919.111796                       # average ReadReq mshr miss latency
system.l2cache.WritebackDirty_hits::.writebacks        22781                       # number of WritebackDirty hits
system.l2cache.WritebackDirty_hits::total        22781                       # number of WritebackDirty hits
system.l2cache.WritebackDirty_accesses::.writebacks        22781                       # number of WritebackDirty accesses(hits+misses)
system.l2cache.WritebackDirty_accesses::total        22781                       # number of WritebackDirty accesses(hits+misses)
system.l2cache.power_state.pwrStateResidencyTicks::UNDEFINED  27100048000                       # Cumulative time (in ticks) in various power states
system.l2cache.tags.tagsinuse              510.149616                       # Cycle average of tags in use
system.l2cache.tags.total_refs                 209581                       # Total number of references to valid blocks.
system.l2cache.tags.sampled_refs               131586                       # Sample count of references to valid blocks.
system.l2cache.tags.avg_refs                 1.592730                       # Average number of references to valid blocks.
system.l2cache.tags.warmup_cycle                78000                       # Cycle when the warmup percentage was hit.
system.l2cache.tags.occ_blocks::.writebacks    54.848321                       # Average occupied blocks per requestor
system.l2cache.tags.occ_blocks::.cpu.inst   250.066085                       # Average occupied blocks per requestor
system.l2cache.tags.occ_blocks::.cpu.data   205.235210                       # Average occupied blocks per requestor
system.l2cache.tags.occ_percent::.writebacks     0.107126                       # Average percentage of cache occupancy
system.l2cache.tags.occ_percent::.cpu.inst     0.488410                       # Average percentage of cache occupancy
system.l2cache.tags.occ_percent::.cpu.data     0.400850                       # Average percentage of cache occupancy
system.l2cache.tags.occ_percent::total       0.996386                       # Average percentage of cache occupancy
system.l2cache.tags.occ_task_id_blocks::1024          512                       # Occupied blocks per task id
system.l2cache.tags.age_task_id_blocks_1024::0           63                       # Occupied blocks per task id
system.l2cache.tags.age_task_id_blocks_1024::1          100                       # Occupied blocks per task id
system.l2cache.tags.age_task_id_blocks_1024::2          146                       # Occupied blocks per task id
system.l2cache.tags.age_task_id_blocks_1024::3          203                       # Occupied blocks per task id
system.l2cache.tags.occ_task_id_percent::1024            1                       # Percentage of cache occupancy per task id
system.l2cache.tags.tag_accesses               341167                       # Number of tag accesses
system.l2cache.tags.data_accesses              341167                       # Number of data accesses
system.l2cache.tags.power_state.pwrStateResidencyTicks::UNDEFINED  27100048000                       # Cumulative time (in ticks) in various power states
system.l2bar.trans_dist::ReadReq               186800                       # Transaction distribution
system.l2bar.trans_dist::ReadResp              186800                       # Transaction distribution
system.l2bar.trans_dist::WritebackDirty         22781                       # Transaction distribution
system.l2bar.pkt_count_system.dcache.mem_side::system.l2cache.cpu_side       171717                       # Packet count per connected master and slave (bytes)
system.l2bar.pkt_count_system.icache.mem_side::system.l2cache.cpu_side       224664                       # Packet count per connected master and slave (bytes)
system.l2bar.pkt_count::total                  396381                       # Packet count per connected master and slave (bytes)
system.l2bar.pkt_size_system.dcache.mem_side::system.l2cache.cpu_side      6223936                       # Cumulative packet size per connected master and slave (bytes)
system.l2bar.pkt_size_system.icache.mem_side::system.l2cache.cpu_side      7189248                       # Cumulative packet size per connected master and slave (bytes)
system.l2bar.pkt_size::total                 13413184                       # Cumulative packet size per connected master and slave (bytes)
system.l2bar.respLayer1.occupancy           561660000                       # Layer occupancy (ticks)
system.l2bar.respLayer1.utilization               2.1                       # Layer utilization (%)
system.l2bar.reqLayer0.occupancy            300705000                       # Layer occupancy (ticks)
system.l2bar.reqLayer0.utilization                1.1                       # Layer utilization (%)
system.l2bar.respLayer0.occupancy           372340000                       # Layer occupancy (ticks)
system.l2bar.respLayer0.utilization               1.4                       # Layer utilization (%)
system.l2bar.power_state.pwrStateResidencyTicks::UNDEFINED  27100048000                       # Cumulative time (in ticks) in various power states
system.cpu.dtb.walker.power_state.pwrStateResidencyTicks::UNDEFINED  27100048000                       # Cumulative time (in ticks) in various power states
system.cpu.interrupts.clk_domain.clock          16000                       # Clock period in ticks
system.cpu.itb.walker.power_state.pwrStateResidencyTicks::UNDEFINED  27100048000                       # Cumulative time (in ticks) in various power states
system.cpu.power_state.numTransitions               1                       # Number of power state transitions
system.cpu.power_state.pwrStateResidencyTicks::ON  27100048000                       # Cumulative time (in ticks) in various power states

---------- End Simulation Statistics   ----------
