
---------- Begin Simulation Statistics ----------
final_tick                                 4158318000                       # Number of ticks from beginning of simulation (restored from checkpoints and never reset)
host_inst_rate                                  92642                       # Simulator instruction rate (inst/s)
host_mem_usage                               34264572                       # Number of bytes of host memory used
host_op_rate                                   181319                       # Simulator op (including micro ops) rate (op/s)
host_seconds                                    10.79                       # Real time elapsed on the host
host_tick_rate                              385211990                       # Simulator tick rate (ticks/s)
sim_freq                                 1000000000000                       # Frequency of simulated ticks
sim_insts                                     1000012                       # Number of instructions simulated
sim_ops                                       1957307                       # Number of ops (including micro ops) simulated
sim_seconds                                  0.004158                       # Number of seconds simulated
sim_ticks                                  4158318000                       # Number of ticks simulated
system.cpu.Branches                            218932                       # Number of branches fetched
system.cpu.committedInsts                     1000012                       # Number of instructions committed
system.cpu.committedOps                       1957307                       # Number of ops (including micro ops) committed
system.cpu.dtb.rdAccesses                      183786                       # TLB accesses on read requests
system.cpu.dtb.rdMisses                            35                       # TLB misses on read requests
system.cpu.dtb.wrAccesses                      130535                       # TLB accesses on write requests
system.cpu.dtb.wrMisses                            92                       # TLB misses on write requests
system.cpu.idle_fraction                            0                       # Percentage of idle cycles
system.cpu.itb.rdAccesses                           0                       # TLB accesses on read requests
system.cpu.itb.rdMisses                             0                       # TLB misses on read requests
system.cpu.itb.wrAccesses                     1330364                       # TLB accesses on write requests
system.cpu.itb.wrMisses                            90                       # TLB misses on write requests
system.cpu.not_idle_fraction                        1                       # Percentage of non-idle cycles
system.cpu.numCycles                          4158307                       # number of cpu cycles simulated
system.cpu.numWorkItemsCompleted                    0                       # number of work items this cpu completed
system.cpu.numWorkItemsStarted                      0                       # number of work items this cpu started
system.cpu.num_busy_cycles                    4158307                       # Number of busy cycles
system.cpu.num_cc_register_reads              1243415                       # number of times the CC registers were read
system.cpu.num_cc_register_writes              640901                       # number of times the CC registers were written
system.cpu.num_conditional_control_insts       167734                       # number of instructions that are conditional controls
system.cpu.num_fp_alu_accesses                  84033                       # Number of float alu accesses
system.cpu.num_fp_insts                         84033                       # number of float instructions
system.cpu.num_fp_register_reads               125416                       # number of times the floating registers were read
system.cpu.num_fp_register_writes               65635                       # number of times the floating registers were written
system.cpu.num_func_calls                       28371                       # number of times a function call or return occured
system.cpu.num_idle_cycles                          0                       # Number of idle cycles
system.cpu.num_int_alu_accesses               1896497                       # Number of integer alu accesses
system.cpu.num_int_insts                      1896497                       # number of integer instructions
system.cpu.num_int_register_reads             3666923                       # number of times the integer registers were read
system.cpu.num_int_register_writes            1560077                       # number of times the integer registers were written
system.cpu.num_load_insts                      182974                       # Number of load instructions
system.cpu.num_mem_refs                        313399                       # number of memory refs
system.cpu.num_store_insts                     130425                       # Number of store instructions
system.cpu.num_vec_alu_accesses                     0                       # Number of vector alu accesses
system.cpu.num_vec_insts                            0                       # number of vector instructions
system.cpu.num_vec_register_reads                   0                       # number of times the vector registers were read
system.cpu.num_vec_register_writes                  0                       # number of times the vector registers were written
system.cpu.op_class::No_OpClass                 15388      0.79%      0.79% # Class of executed instruction
system.cpu.op_class::IntAlu                   1556399     79.52%     80.30% # Class of executed instruction
system.cpu.op_class::IntMult                     1608      0.08%     80.39% # Class of executed instruction
system.cpu.op_class::IntDiv                     12886      0.66%     81.04% # Class of executed instruction
system.cpu.op_class::FloatAdd                    1125      0.06%     81.10% # Class of executed instruction
system.cpu.op_class::FloatCmp                       0      0.00%     81.10% # Class of executed instruction
system.cpu.op_class::FloatCvt                       0      0.00%     81.10% # Class of executed instruction
system.cpu.op_class::FloatMult                      0      0.00%     81.10% # Class of executed instruction
system.cpu.op_class::FloatMultAcc                   0      0.00%     81.10% # Class of executed instruction
system.cpu.op_class::FloatDiv                       0      0.00%     81.10% # Class of executed instruction
system.cpu.op_class::FloatMisc                      0      0.00%     81.10% # Class of executed instruction
system.cpu.op_class::FloatSqrt                      0      0.00%     81.10% # Class of executed instruction
system.cpu.op_class::SimdAdd                      506      0.03%     81.13% # Class of executed instruction
system.cpu.op_class::SimdAddAcc                     0      0.00%     81.13% # Class of executed instruction
system.cpu.op_class::SimdAlu                    16673      0.85%     81.98% # Class of executed instruction
system.cpu.op_class::SimdCmp                        0      0.00%     81.98% # Class of executed instruction
system.cpu.op_class::SimdCvt                    13388      0.68%     82.66% # Class of executed instruction
system.cpu.op_class::SimdMisc                   15708      0.80%     83.47% # Class of executed instruction
system.cpu.op_class::SimdMult                       0      0.00%     83.47% # Class of executed instruction
system.cpu.op_class::SimdMultAcc                    0      0.00%     83.47% # Class of executed instruction
system.cpu.op_class::SimdShift                    827      0.04%     83.51% # Class of executed instruction
system.cpu.op_class::SimdShiftAcc                   0      0.00%     83.51% # Class of executed instruction
system.cpu.op_class::SimdDiv                        0      0.00%     83.51% # Class of executed instruction
system.cpu.op_class::SimdSqrt                       0      0.00%     83.51% # Class of executed instruction
system.cpu.op_class::SimdFloatAdd                4280      0.22%     83.73% # Class of executed instruction
system.cpu.op_class::SimdFloatAlu                   0      0.00%     83.73% # Class of executed instruction
system.cpu.op_class::SimdFloatCmp                   0      0.00%     83.73% # Class of executed instruction
system.cpu.op_class::SimdFloatCvt                1712      0.09%     83.81% # Class of executed instruction
system.cpu.op_class::SimdFloatDiv                   0      0.00%     83.81% # Class of executed instruction
system.cpu.op_class::SimdFloatMisc                  0      0.00%     83.81% # Class of executed instruction
system.cpu.op_class::SimdFloatMult               2568      0.13%     83.94% # Class of executed instruction
system.cpu.op_class::SimdFloatMultAcc               0      0.00%     83.94% # Class of executed instruction
system.cpu.op_class::SimdFloatSqrt                856      0.04%     83.99% # Class of executed instruction
system.cpu.op_class::SimdReduceAdd                  0      0.00%     83.99% # Class of executed instruction
system.cpu.op_class::SimdReduceAlu                  0      0.00%     83.99% # Class of executed instruction
system.cpu.op_class::SimdReduceCmp                  0      0.00%     83.99% # Class of executed instruction
system.cpu.op_class::SimdFloatReduceAdd             0      0.00%     83.99% # Class of executed instruction
system.cpu.op_class::SimdFloatReduceCmp             0      0.00%     83.99% # Class of executed instruction
system.cpu.op_class::SimdAes                        0      0.00%     83.99% # Class of executed instruction
system.cpu.op_class::SimdAesMix                     0      0.00%     83.99% # Class of executed instruction
system.cpu.op_class::SimdSha1Hash                   0      0.00%     83.99% # Class of executed instruction
system.cpu.op_class::SimdSha1Hash2                  0      0.00%     83.99% # Class of executed instruction
system.cpu.op_class::SimdSha256Hash                 0      0.00%     83.99% # Class of executed instruction
system.cpu.op_class::SimdSha256Hash2                0      0.00%     83.99% # Class of executed instruction
system.cpu.op_class::SimdShaSigma2                  0      0.00%     83.99% # Class of executed instruction
system.cpu.op_class::SimdShaSigma3                  0      0.00%     83.99% # Class of executed instruction
system.cpu.op_class::SimdPredAlu                    0      0.00%     83.99% # Class of executed instruction
system.cpu.op_class::MemRead                   160941      8.22%     92.21% # Class of executed instruction
system.cpu.op_class::MemWrite                  126721      6.47%     98.69% # Class of executed instruction
system.cpu.op_class::FloatMemRead               22033      1.13%     99.81% # Class of executed instruction
system.cpu.op_class::FloatMemWrite               3704      0.19%    100.00% # Class of executed instruction
system.cpu.op_class::IprAccess                      0      0.00%    100.00% # Class of executed instruction
system.cpu.op_class::InstPrefetch                   0      0.00%    100.00% # Class of executed instruction
system.cpu.op_class::total                    1957323                       # Class of executed instruction
system.cpu.workload.numSyscalls                    67                       # Number of system calls
system.dynamic_cache.flushTicks                     0                       # Ticks taken to flush
system.dynamic_cache.numFlushes                     0                       # Number of Flushes Taken
system.cache_small.demand_hits::.cpu.inst        11519                       # number of demand (read+write) hits
system.cache_small.demand_hits::.cpu.data          805                       # number of demand (read+write) hits
system.cache_small.demand_hits::total           12324                       # number of demand (read+write) hits
system.cache_small.overall_hits::.cpu.inst        11519                       # number of overall hits
system.cache_small.overall_hits::.cpu.data          805                       # number of overall hits
system.cache_small.overall_hits::total          12324                       # number of overall hits
system.cache_small.demand_misses::.cpu.inst          978                       # number of demand (read+write) misses
system.cache_small.demand_misses::.cpu.data         3772                       # number of demand (read+write) misses
system.cache_small.demand_misses::total          4750                       # number of demand (read+write) misses
system.cache_small.overall_misses::.cpu.inst          978                       # number of overall misses
system.cache_small.overall_misses::.cpu.data         3772                       # number of overall misses
system.cache_small.overall_misses::total         4750                       # number of overall misses
system.cache_small.demand_miss_latency::.cpu.inst     57353000                       # number of demand (read+write) miss cycles
system.cache_small.demand_miss_latency::.cpu.data    219875000                       # number of demand (read+write) miss cycles
system.cache_small.demand_miss_latency::total    277228000                       # number of demand (read+write) miss cycles
system.cache_small.overall_miss_latency::.cpu.inst     57353000                       # number of overall miss cycles
system.cache_small.overall_miss_latency::.cpu.data    219875000                       # number of overall miss cycles
system.cache_small.overall_miss_latency::total    277228000                       # number of overall miss cycles
system.cache_small.demand_accesses::.cpu.inst        12497                       # number of demand (read+write) accesses
system.cache_small.demand_accesses::.cpu.data         4577                       # number of demand (read+write) accesses
system.cache_small.demand_accesses::total        17074                       # number of demand (read+write) accesses
system.cache_small.overall_accesses::.cpu.inst        12497                       # number of overall (read+write) accesses
system.cache_small.overall_accesses::.cpu.data         4577                       # number of overall (read+write) accesses
system.cache_small.overall_accesses::total        17074                       # number of overall (read+write) accesses
system.cache_small.demand_miss_rate::.cpu.inst     0.078259                       # miss rate for demand accesses
system.cache_small.demand_miss_rate::.cpu.data     0.824121                       # miss rate for demand accesses
system.cache_small.demand_miss_rate::total     0.278201                       # miss rate for demand accesses
system.cache_small.overall_miss_rate::.cpu.inst     0.078259                       # miss rate for overall accesses
system.cache_small.overall_miss_rate::.cpu.data     0.824121                       # miss rate for overall accesses
system.cache_small.overall_miss_rate::total     0.278201                       # miss rate for overall accesses
system.cache_small.demand_avg_miss_latency::.cpu.inst 58643.149284                       # average overall miss latency
system.cache_small.demand_avg_miss_latency::.cpu.data 58291.357370                       # average overall miss latency
system.cache_small.demand_avg_miss_latency::total 58363.789474                       # average overall miss latency
system.cache_small.overall_avg_miss_latency::.cpu.inst 58643.149284                       # average overall miss latency
system.cache_small.overall_avg_miss_latency::.cpu.data 58291.357370                       # average overall miss latency
system.cache_small.overall_avg_miss_latency::total 58363.789474                       # average overall miss latency
system.cache_small.blocked_cycles::no_mshrs            0                       # number of cycles access was blocked
system.cache_small.blocked_cycles::no_targets            0                       # number of cycles access was blocked
system.cache_small.blocked::no_mshrs                0                       # number of cycles access was blocked
system.cache_small.blocked::no_targets              0                       # number of cycles access was blocked
system.cache_small.avg_blocked_cycles::no_mshrs          nan                       # average number of cycles each access was blocked
system.cache_small.avg_blocked_cycles::no_targets          nan                       # average number of cycles each access was blocked
system.cache_small.demand_mshr_misses::.cpu.inst          978                       # number of demand (read+write) MSHR misses
system.cache_small.demand_mshr_misses::.cpu.data         3772                       # number of demand (read+write) MSHR misses
system.cache_small.demand_mshr_misses::total         4750                       # number of demand (read+write) MSHR misses
system.cache_small.overall_mshr_misses::.cpu.inst          978                       # number of overall MSHR misses
system.cache_small.overall_mshr_misses::.cpu.data         3772                       # number of overall MSHR misses
system.cache_small.overall_mshr_misses::total         4750                       # number of overall MSHR misses
system.cache_small.demand_mshr_miss_latency::.cpu.inst     55397000                       # number of demand (read+write) MSHR miss cycles
system.cache_small.demand_mshr_miss_latency::.cpu.data    212331000                       # number of demand (read+write) MSHR miss cycles
system.cache_small.demand_mshr_miss_latency::total    267728000                       # number of demand (read+write) MSHR miss cycles
system.cache_small.overall_mshr_miss_latency::.cpu.inst     55397000                       # number of overall MSHR miss cycles
system.cache_small.overall_mshr_miss_latency::.cpu.data    212331000                       # number of overall MSHR miss cycles
system.cache_small.overall_mshr_miss_latency::total    267728000                       # number of overall MSHR miss cycles
system.cache_small.demand_mshr_miss_rate::.cpu.inst     0.078259                       # mshr miss rate for demand accesses
system.cache_small.demand_mshr_miss_rate::.cpu.data     0.824121                       # mshr miss rate for demand accesses
system.cache_small.demand_mshr_miss_rate::total     0.278201                       # mshr miss rate for demand accesses
system.cache_small.overall_mshr_miss_rate::.cpu.inst     0.078259                       # mshr miss rate for overall accesses
system.cache_small.overall_mshr_miss_rate::.cpu.data     0.824121                       # mshr miss rate for overall accesses
system.cache_small.overall_mshr_miss_rate::total     0.278201                       # mshr miss rate for overall accesses
system.cache_small.demand_avg_mshr_miss_latency::.cpu.inst 56643.149284                       # average overall mshr miss latency
system.cache_small.demand_avg_mshr_miss_latency::.cpu.data 56291.357370                       # average overall mshr miss latency
system.cache_small.demand_avg_mshr_miss_latency::total 56363.789474                       # average overall mshr miss latency
system.cache_small.overall_avg_mshr_miss_latency::.cpu.inst 56643.149284                       # average overall mshr miss latency
system.cache_small.overall_avg_mshr_miss_latency::.cpu.data 56291.357370                       # average overall mshr miss latency
system.cache_small.overall_avg_mshr_miss_latency::total 56363.789474                       # average overall mshr miss latency
system.cache_small.replacements                     0                       # number of replacements
system.cache_small.ReadReq_hits::.cpu.inst        11519                       # number of ReadReq hits
system.cache_small.ReadReq_hits::.cpu.data          805                       # number of ReadReq hits
system.cache_small.ReadReq_hits::total          12324                       # number of ReadReq hits
system.cache_small.ReadReq_misses::.cpu.inst          978                       # number of ReadReq misses
system.cache_small.ReadReq_misses::.cpu.data         3772                       # number of ReadReq misses
system.cache_small.ReadReq_misses::total         4750                       # number of ReadReq misses
system.cache_small.ReadReq_miss_latency::.cpu.inst     57353000                       # number of ReadReq miss cycles
system.cache_small.ReadReq_miss_latency::.cpu.data    219875000                       # number of ReadReq miss cycles
system.cache_small.ReadReq_miss_latency::total    277228000                       # number of ReadReq miss cycles
system.cache_small.ReadReq_accesses::.cpu.inst        12497                       # number of ReadReq accesses(hits+misses)
system.cache_small.ReadReq_accesses::.cpu.data         4577                       # number of ReadReq accesses(hits+misses)
system.cache_small.ReadReq_accesses::total        17074                       # number of ReadReq accesses(hits+misses)
system.cache_small.ReadReq_miss_rate::.cpu.inst     0.078259                       # miss rate for ReadReq accesses
system.cache_small.ReadReq_miss_rate::.cpu.data     0.824121                       # miss rate for ReadReq accesses
system.cache_small.ReadReq_miss_rate::total     0.278201                       # miss rate for ReadReq accesses
system.cache_small.ReadReq_avg_miss_latency::.cpu.inst 58643.149284                       # average ReadReq miss latency
system.cache_small.ReadReq_avg_miss_latency::.cpu.data 58291.357370                       # average ReadReq miss latency
system.cache_small.ReadReq_avg_miss_latency::total 58363.789474                       # average ReadReq miss latency
system.cache_small.ReadReq_mshr_misses::.cpu.inst          978                       # number of ReadReq MSHR misses
system.cache_small.ReadReq_mshr_misses::.cpu.data         3772                       # number of ReadReq MSHR misses
system.cache_small.ReadReq_mshr_misses::total         4750                       # number of ReadReq MSHR misses
system.cache_small.ReadReq_mshr_miss_latency::.cpu.inst     55397000                       # number of ReadReq MSHR miss cycles
system.cache_small.ReadReq_mshr_miss_latency::.cpu.data    212331000                       # number of ReadReq MSHR miss cycles
system.cache_small.ReadReq_mshr_miss_latency::total    267728000                       # number of ReadReq MSHR miss cycles
system.cache_small.ReadReq_mshr_miss_rate::.cpu.inst     0.078259                       # mshr miss rate for ReadReq accesses
system.cache_small.ReadReq_mshr_miss_rate::.cpu.data     0.824121                       # mshr miss rate for ReadReq accesses
system.cache_small.ReadReq_mshr_miss_rate::total     0.278201                       # mshr miss rate for ReadReq accesses
system.cache_small.ReadReq_avg_mshr_miss_latency::.cpu.inst 56643.149284                       # average ReadReq mshr miss latency
system.cache_small.ReadReq_avg_mshr_miss_latency::.cpu.data 56291.357370                       # average ReadReq mshr miss latency
system.cache_small.ReadReq_avg_mshr_miss_latency::total 56363.789474                       # average ReadReq mshr miss latency
system.cache_small.WritebackDirty_hits::.writebacks         3949                       # number of WritebackDirty hits
system.cache_small.WritebackDirty_hits::total         3949                       # number of WritebackDirty hits
system.cache_small.WritebackDirty_accesses::.writebacks         3949                       # number of WritebackDirty accesses(hits+misses)
system.cache_small.WritebackDirty_accesses::total         3949                       # number of WritebackDirty accesses(hits+misses)
system.cache_small.power_state.pwrStateResidencyTicks::UNDEFINED   4158318000                       # Cumulative time (in ticks) in various power states
system.cache_small.tags.tagsinuse         3779.836831                       # Cycle average of tags in use
system.cache_small.tags.total_refs                  0                       # Total number of references to valid blocks.
system.cache_small.tags.sampled_refs                0                       # Sample count of references to valid blocks.
system.cache_small.tags.avg_refs                  nan                       # Average number of references to valid blocks.
system.cache_small.tags.warmup_cycle            76000                       # Cycle when the warmup percentage was hit.
system.cache_small.tags.occ_blocks::.cpu.inst   861.400757                       # Average occupied blocks per requestor
system.cache_small.tags.occ_blocks::.cpu.data  2918.436074                       # Average occupied blocks per requestor
system.cache_small.tags.occ_percent::.cpu.inst     0.013144                       # Average percentage of cache occupancy
system.cache_small.tags.occ_percent::.cpu.data     0.044532                       # Average percentage of cache occupancy
system.cache_small.tags.occ_percent::total     0.057676                       # Average percentage of cache occupancy
system.cache_small.tags.occ_task_id_blocks::1024         4750                       # Occupied blocks per task id
system.cache_small.tags.age_task_id_blocks_1024::0            2                       # Occupied blocks per task id
system.cache_small.tags.age_task_id_blocks_1024::1           64                       # Occupied blocks per task id
system.cache_small.tags.age_task_id_blocks_1024::2          156                       # Occupied blocks per task id
system.cache_small.tags.age_task_id_blocks_1024::3         4528                       # Occupied blocks per task id
system.cache_small.tags.occ_task_id_percent::1024     0.072479                       # Percentage of cache occupancy per task id
system.cache_small.tags.tag_accesses            25773                       # Number of tag accesses
system.cache_small.tags.data_accesses           25773                       # Number of data accesses
system.cache_small.tags.power_state.pwrStateResidencyTicks::UNDEFINED   4158318000                       # Cumulative time (in ticks) in various power states
system.icache.demand_hits::.cpu.inst          1302015                       # number of demand (read+write) hits
system.icache.demand_hits::total              1302015                       # number of demand (read+write) hits
system.icache.overall_hits::.cpu.inst         1302015                       # number of overall hits
system.icache.overall_hits::total             1302015                       # number of overall hits
system.icache.demand_misses::.cpu.inst          28349                       # number of demand (read+write) misses
system.icache.demand_misses::total              28349                       # number of demand (read+write) misses
system.icache.overall_misses::.cpu.inst         28349                       # number of overall misses
system.icache.overall_misses::total             28349                       # number of overall misses
system.icache.demand_miss_latency::.cpu.inst    530829000                       # number of demand (read+write) miss cycles
system.icache.demand_miss_latency::total    530829000                       # number of demand (read+write) miss cycles
system.icache.overall_miss_latency::.cpu.inst    530829000                       # number of overall miss cycles
system.icache.overall_miss_latency::total    530829000                       # number of overall miss cycles
system.icache.demand_accesses::.cpu.inst      1330364                       # number of demand (read+write) accesses
system.icache.demand_accesses::total          1330364                       # number of demand (read+write) accesses
system.icache.overall_accesses::.cpu.inst      1330364                       # number of overall (read+write) accesses
system.icache.overall_accesses::total         1330364                       # number of overall (read+write) accesses
system.icache.demand_miss_rate::.cpu.inst     0.021309                       # miss rate for demand accesses
system.icache.demand_miss_rate::total        0.021309                       # miss rate for demand accesses
system.icache.overall_miss_rate::.cpu.inst     0.021309                       # miss rate for overall accesses
system.icache.overall_miss_rate::total       0.021309                       # miss rate for overall accesses
system.icache.demand_avg_miss_latency::.cpu.inst 18724.787470                       # average overall miss latency
system.icache.demand_avg_miss_latency::total 18724.787470                       # average overall miss latency
system.icache.overall_avg_miss_latency::.cpu.inst 18724.787470                       # average overall miss latency
system.icache.overall_avg_miss_latency::total 18724.787470                       # average overall miss latency
system.icache.blocked_cycles::no_mshrs              0                       # number of cycles access was blocked
system.icache.blocked_cycles::no_targets            0                       # number of cycles access was blocked
system.icache.blocked::no_mshrs                     0                       # number of cycles access was blocked
system.icache.blocked::no_targets                   0                       # number of cycles access was blocked
system.icache.avg_blocked_cycles::no_mshrs          nan                       # average number of cycles each access was blocked
system.icache.avg_blocked_cycles::no_targets          nan                       # average number of cycles each access was blocked
system.icache.demand_mshr_misses::.cpu.inst        28349                       # number of demand (read+write) MSHR misses
system.icache.demand_mshr_misses::total         28349                       # number of demand (read+write) MSHR misses
system.icache.overall_mshr_misses::.cpu.inst        28349                       # number of overall MSHR misses
system.icache.overall_mshr_misses::total        28349                       # number of overall MSHR misses
system.icache.demand_mshr_miss_latency::.cpu.inst    474131000                       # number of demand (read+write) MSHR miss cycles
system.icache.demand_mshr_miss_latency::total    474131000                       # number of demand (read+write) MSHR miss cycles
system.icache.overall_mshr_miss_latency::.cpu.inst    474131000                       # number of overall MSHR miss cycles
system.icache.overall_mshr_miss_latency::total    474131000                       # number of overall MSHR miss cycles
system.icache.demand_mshr_miss_rate::.cpu.inst     0.021309                       # mshr miss rate for demand accesses
system.icache.demand_mshr_miss_rate::total     0.021309                       # mshr miss rate for demand accesses
system.icache.overall_mshr_miss_rate::.cpu.inst     0.021309                       # mshr miss rate for overall accesses
system.icache.overall_mshr_miss_rate::total     0.021309                       # mshr miss rate for overall accesses
system.icache.demand_avg_mshr_miss_latency::.cpu.inst 16724.787470                       # average overall mshr miss latency
system.icache.demand_avg_mshr_miss_latency::total 16724.787470                       # average overall mshr miss latency
system.icache.overall_avg_mshr_miss_latency::.cpu.inst 16724.787470                       # average overall mshr miss latency
system.icache.overall_avg_mshr_miss_latency::total 16724.787470                       # average overall mshr miss latency
system.icache.replacements                      28093                       # number of replacements
system.icache.ReadReq_hits::.cpu.inst         1302015                       # number of ReadReq hits
system.icache.ReadReq_hits::total             1302015                       # number of ReadReq hits
system.icache.ReadReq_misses::.cpu.inst         28349                       # number of ReadReq misses
system.icache.ReadReq_misses::total             28349                       # number of ReadReq misses
system.icache.ReadReq_miss_latency::.cpu.inst    530829000                       # number of ReadReq miss cycles
system.icache.ReadReq_miss_latency::total    530829000                       # number of ReadReq miss cycles
system.icache.ReadReq_accesses::.cpu.inst      1330364                       # number of ReadReq accesses(hits+misses)
system.icache.ReadReq_accesses::total         1330364                       # number of ReadReq accesses(hits+misses)
system.icache.ReadReq_miss_rate::.cpu.inst     0.021309                       # miss rate for ReadReq accesses
system.icache.ReadReq_miss_rate::total       0.021309                       # miss rate for ReadReq accesses
system.icache.ReadReq_avg_miss_latency::.cpu.inst 18724.787470                       # average ReadReq miss latency
system.icache.ReadReq_avg_miss_latency::total 18724.787470                       # average ReadReq miss latency
system.icache.ReadReq_mshr_misses::.cpu.inst        28349                       # number of ReadReq MSHR misses
system.icache.ReadReq_mshr_misses::total        28349                       # number of ReadReq MSHR misses
system.icache.ReadReq_mshr_miss_latency::.cpu.inst    474131000                       # number of ReadReq MSHR miss cycles
system.icache.ReadReq_mshr_miss_latency::total    474131000                       # number of ReadReq MSHR miss cycles
system.icache.ReadReq_mshr_miss_rate::.cpu.inst     0.021309                       # mshr miss rate for ReadReq accesses
system.icache.ReadReq_mshr_miss_rate::total     0.021309                       # mshr miss rate for ReadReq accesses
system.icache.ReadReq_avg_mshr_miss_latency::.cpu.inst 16724.787470                       # average ReadReq mshr miss latency
system.icache.ReadReq_avg_mshr_miss_latency::total 16724.787470                       # average ReadReq mshr miss latency
system.icache.power_state.pwrStateResidencyTicks::UNDEFINED   4158318000                       # Cumulative time (in ticks) in various power states
system.icache.tags.tagsinuse               250.962070                       # Cycle average of tags in use
system.icache.tags.total_refs                 1127330                       # Total number of references to valid blocks.
system.icache.tags.sampled_refs                 28093                       # Sample count of references to valid blocks.
system.icache.tags.avg_refs                 40.128502                       # Average number of references to valid blocks.
system.icache.tags.warmup_cycle                 82000                       # Cycle when the warmup percentage was hit.
system.icache.tags.occ_blocks::.cpu.inst   250.962070                       # Average occupied blocks per requestor
system.icache.tags.occ_percent::.cpu.inst     0.980321                       # Average percentage of cache occupancy
system.icache.tags.occ_percent::total        0.980321                       # Average percentage of cache occupancy
system.icache.tags.occ_task_id_blocks::1024          256                       # Occupied blocks per task id
system.icache.tags.age_task_id_blocks_1024::0           39                       # Occupied blocks per task id
system.icache.tags.age_task_id_blocks_1024::1           88                       # Occupied blocks per task id
system.icache.tags.age_task_id_blocks_1024::2            6                       # Occupied blocks per task id
system.icache.tags.age_task_id_blocks_1024::3          123                       # Occupied blocks per task id
system.icache.tags.occ_task_id_percent::1024            1                       # Percentage of cache occupancy per task id
system.icache.tags.tag_accesses               1358713                       # Number of tag accesses
system.icache.tags.data_accesses              1358713                       # Number of data accesses
system.icache.tags.power_state.pwrStateResidencyTicks::UNDEFINED   4158318000                       # Cumulative time (in ticks) in various power states
system.membus.trans_dist::ReadReq                4750                       # Transaction distribution
system.membus.trans_dist::ReadResp               4750                       # Transaction distribution
system.membus.pkt_count_system.cache_small.mem_side::system.mem_ctrl.port         9500                       # Packet count per connected master and slave (bytes)
system.membus.pkt_count_system.cache_small.mem_side::total         9500                       # Packet count per connected master and slave (bytes)
system.membus.pkt_count::total                   9500                       # Packet count per connected master and slave (bytes)
system.membus.pkt_size_system.cache_small.mem_side::system.mem_ctrl.port       304000                       # Cumulative packet size per connected master and slave (bytes)
system.membus.pkt_size_system.cache_small.mem_side::total       304000                       # Cumulative packet size per connected master and slave (bytes)
system.membus.pkt_size::total                  304000                       # Cumulative packet size per connected master and slave (bytes)
system.membus.reqLayer2.occupancy             4750000                       # Layer occupancy (ticks)
system.membus.reqLayer2.utilization               0.1                       # Layer utilization (%)
system.membus.respLayer1.occupancy           25207250                       # Layer occupancy (ticks)
system.membus.respLayer1.utilization              0.6                       # Layer utilization (%)
system.membus.power_state.pwrStateResidencyTicks::UNDEFINED   4158318000                       # Cumulative time (in ticks) in various power states
system.mem_ctrl.bytes_read::.cpu.inst           62592                       # Number of bytes read from this memory
system.mem_ctrl.bytes_read::.cpu.data          241408                       # Number of bytes read from this memory
system.mem_ctrl.bytes_read::total              304000                       # Number of bytes read from this memory
system.mem_ctrl.bytes_inst_read::.cpu.inst        62592                       # Number of instructions bytes read from this memory
system.mem_ctrl.bytes_inst_read::total          62592                       # Number of instructions bytes read from this memory
system.mem_ctrl.num_reads::.cpu.inst              978                       # Number of read requests responded to by this memory
system.mem_ctrl.num_reads::.cpu.data             3772                       # Number of read requests responded to by this memory
system.mem_ctrl.num_reads::total                 4750                       # Number of read requests responded to by this memory
system.mem_ctrl.bw_read::.cpu.inst           15052240                       # Total read bandwidth from this memory (bytes/s)
system.mem_ctrl.bw_read::.cpu.data           58054242                       # Total read bandwidth from this memory (bytes/s)
system.mem_ctrl.bw_read::total               73106482                       # Total read bandwidth from this memory (bytes/s)
system.mem_ctrl.bw_inst_read::.cpu.inst      15052240                       # Instruction read bandwidth from this memory (bytes/s)
system.mem_ctrl.bw_inst_read::total          15052240                       # Instruction read bandwidth from this memory (bytes/s)
system.mem_ctrl.bw_total::.cpu.inst          15052240                       # Total bandwidth to/from this memory (bytes/s)
system.mem_ctrl.bw_total::.cpu.data          58054242                       # Total bandwidth to/from this memory (bytes/s)
system.mem_ctrl.bw_total::total              73106482                       # Total bandwidth to/from this memory (bytes/s)
system.mem_ctrl.avgPriority_.cpu.inst::samples       978.00                       # Average QoS priority value for accepted requests
system.mem_ctrl.avgPriority_.cpu.data::samples      3772.00                       # Average QoS priority value for accepted requests
system.mem_ctrl.priorityMinLatency       0.000000018750                       # per QoS priority minimum request to response latency (s)
system.mem_ctrl.priorityMaxLatency       0.000000579500                       # per QoS priority maximum request to response latency (s)
system.mem_ctrl.numReadWriteTurnArounds             0                       # Number of turnarounds from READ to WRITE
system.mem_ctrl.numWriteReadTurnArounds             0                       # Number of turnarounds from WRITE to READ
system.mem_ctrl.numStayReadState                10568                       # Number of times bus staying in READ state
system.mem_ctrl.numStayWriteState                   0                       # Number of times bus staying in WRITE state
system.mem_ctrl.readReqs                         4750                       # Number of read requests accepted
system.mem_ctrl.writeReqs                           0                       # Number of write requests accepted
system.mem_ctrl.readBursts                       4750                       # Number of DRAM read bursts, including those serviced by the write queue
system.mem_ctrl.writeBursts                         0                       # Number of DRAM write bursts, including those merged in the write queue
system.mem_ctrl.servicedByWrQ                       0                       # Number of DRAM read bursts serviced by the write queue
system.mem_ctrl.mergedWrBursts                      0                       # Number of DRAM write bursts merged with an existing one
system.mem_ctrl.neitherReadNorWriteReqs             0                       # Number of requests that are neither read nor write
system.mem_ctrl.perBankRdBursts::0                344                       # Per bank write bursts
system.mem_ctrl.perBankRdBursts::1                294                       # Per bank write bursts
system.mem_ctrl.perBankRdBursts::2                299                       # Per bank write bursts
system.mem_ctrl.perBankRdBursts::3                202                       # Per bank write bursts
system.mem_ctrl.perBankRdBursts::4                266                       # Per bank write bursts
system.mem_ctrl.perBankRdBursts::5                358                       # Per bank write bursts
system.mem_ctrl.perBankRdBursts::6                360                       # Per bank write bursts
system.mem_ctrl.perBankRdBursts::7                287                       # Per bank write bursts
system.mem_ctrl.perBankRdBursts::8                361                       # Per bank write bursts
system.mem_ctrl.perBankRdBursts::9                231                       # Per bank write bursts
system.mem_ctrl.perBankRdBursts::10               241                       # Per bank write bursts
system.mem_ctrl.perBankRdBursts::11               352                       # Per bank write bursts
system.mem_ctrl.perBankRdBursts::12               309                       # Per bank write bursts
system.mem_ctrl.perBankRdBursts::13               326                       # Per bank write bursts
system.mem_ctrl.perBankRdBursts::14               305                       # Per bank write bursts
system.mem_ctrl.perBankRdBursts::15               215                       # Per bank write bursts
system.mem_ctrl.perBankWrBursts::0                  0                       # Per bank write bursts
system.mem_ctrl.perBankWrBursts::1                  0                       # Per bank write bursts
system.mem_ctrl.perBankWrBursts::2                  0                       # Per bank write bursts
system.mem_ctrl.perBankWrBursts::3                  0                       # Per bank write bursts
system.mem_ctrl.perBankWrBursts::4                  0                       # Per bank write bursts
system.mem_ctrl.perBankWrBursts::5                  0                       # Per bank write bursts
system.mem_ctrl.perBankWrBursts::6                  0                       # Per bank write bursts
system.mem_ctrl.perBankWrBursts::7                  0                       # Per bank write bursts
system.mem_ctrl.perBankWrBursts::8                  0                       # Per bank write bursts
system.mem_ctrl.perBankWrBursts::9                  0                       # Per bank write bursts
system.mem_ctrl.perBankWrBursts::10                 0                       # Per bank write bursts
system.mem_ctrl.perBankWrBursts::11                 0                       # Per bank write bursts
system.mem_ctrl.perBankWrBursts::12                 0                       # Per bank write bursts
system.mem_ctrl.perBankWrBursts::13                 0                       # Per bank write bursts
system.mem_ctrl.perBankWrBursts::14                 0                       # Per bank write bursts
system.mem_ctrl.perBankWrBursts::15                 0                       # Per bank write bursts
system.mem_ctrl.avgRdQLen                        1.00                       # Average read queue length when enqueuing
system.mem_ctrl.avgWrQLen                        0.00                       # Average write queue length when enqueuing
system.mem_ctrl.totQLat                      29958250                       # Total ticks spent queuing
system.mem_ctrl.totBusLat                    23750000                       # Total ticks spent in databus transfers
system.mem_ctrl.totMemAccLat                119020750                       # Total ticks spent from burst creation until serviced by the DRAM
system.mem_ctrl.avgQLat                       6307.00                       # Average queueing delay per DRAM burst
system.mem_ctrl.avgBusLat                     5000.00                       # Average bus latency per DRAM burst
system.mem_ctrl.avgMemAccLat                 25057.00                       # Average memory access latency per DRAM burst
system.mem_ctrl.numRdRetry                          0                       # Number of times read queue was full causing retry
system.mem_ctrl.numWrRetry                          0                       # Number of times write queue was full causing retry
system.mem_ctrl.readRowHits                      3783                       # Number of row buffer hits during reads
system.mem_ctrl.writeRowHits                        0                       # Number of row buffer hits during writes
system.mem_ctrl.readRowHitRate                  79.64                       # Row buffer hit rate for reads
system.mem_ctrl.writeRowHitRate                   nan                       # Row buffer hit rate for writes
system.mem_ctrl.readPktSize::0                      0                       # Read request sizes (log2)
system.mem_ctrl.readPktSize::1                      0                       # Read request sizes (log2)
system.mem_ctrl.readPktSize::2                      0                       # Read request sizes (log2)
system.mem_ctrl.readPktSize::3                      0                       # Read request sizes (log2)
system.mem_ctrl.readPktSize::4                      0                       # Read request sizes (log2)
system.mem_ctrl.readPktSize::5                      0                       # Read request sizes (log2)
system.mem_ctrl.readPktSize::6                   4750                       # Read request sizes (log2)
system.mem_ctrl.writePktSize::0                     0                       # Write request sizes (log2)
system.mem_ctrl.writePktSize::1                     0                       # Write request sizes (log2)
system.mem_ctrl.writePktSize::2                     0                       # Write request sizes (log2)
system.mem_ctrl.writePktSize::3                     0                       # Write request sizes (log2)
system.mem_ctrl.writePktSize::4                     0                       # Write request sizes (log2)
system.mem_ctrl.writePktSize::5                     0                       # Write request sizes (log2)
system.mem_ctrl.writePktSize::6                     0                       # Write request sizes (log2)
system.mem_ctrl.rdQLenPdf::0                     4750                       # What read queue length does an incoming req see
system.mem_ctrl.rdQLenPdf::1                        0                       # What read queue length does an incoming req see
system.mem_ctrl.rdQLenPdf::2                        0                       # What read queue length does an incoming req see
system.mem_ctrl.rdQLenPdf::3                        0                       # What read queue length does an incoming req see
system.mem_ctrl.rdQLenPdf::4                        0                       # What read queue length does an incoming req see
system.mem_ctrl.rdQLenPdf::5                        0                       # What read queue length does an incoming req see
system.mem_ctrl.rdQLenPdf::6                        0                       # What read queue length does an incoming req see
system.mem_ctrl.rdQLenPdf::7                        0                       # What read queue length does an incoming req see
system.mem_ctrl.rdQLenPdf::8                        0                       # What read queue length does an incoming req see
system.mem_ctrl.rdQLenPdf::9                        0                       # What read queue length does an incoming req see
system.mem_ctrl.rdQLenPdf::10                       0                       # What read queue length does an incoming req see
system.mem_ctrl.rdQLenPdf::11                       0                       # What read queue length does an incoming req see
system.mem_ctrl.rdQLenPdf::12                       0                       # What read queue length does an incoming req see
system.mem_ctrl.rdQLenPdf::13                       0                       # What read queue length does an incoming req see
system.mem_ctrl.rdQLenPdf::14                       0                       # What read queue length does an incoming req see
system.mem_ctrl.rdQLenPdf::15                       0                       # What read queue length does an incoming req see
system.mem_ctrl.rdQLenPdf::16                       0                       # What read queue length does an incoming req see
system.mem_ctrl.rdQLenPdf::17                       0                       # What read queue length does an incoming req see
system.mem_ctrl.rdQLenPdf::18                       0                       # What read queue length does an incoming req see
system.mem_ctrl.rdQLenPdf::19                       0                       # What read queue length does an incoming req see
system.mem_ctrl.rdQLenPdf::20                       0                       # What read queue length does an incoming req see
system.mem_ctrl.rdQLenPdf::21                       0                       # What read queue length does an incoming req see
system.mem_ctrl.rdQLenPdf::22                       0                       # What read queue length does an incoming req see
system.mem_ctrl.rdQLenPdf::23                       0                       # What read queue length does an incoming req see
system.mem_ctrl.rdQLenPdf::24                       0                       # What read queue length does an incoming req see
system.mem_ctrl.rdQLenPdf::25                       0                       # What read queue length does an incoming req see
system.mem_ctrl.rdQLenPdf::26                       0                       # What read queue length does an incoming req see
system.mem_ctrl.rdQLenPdf::27                       0                       # What read queue length does an incoming req see
system.mem_ctrl.rdQLenPdf::28                       0                       # What read queue length does an incoming req see
system.mem_ctrl.rdQLenPdf::29                       0                       # What read queue length does an incoming req see
system.mem_ctrl.rdQLenPdf::30                       0                       # What read queue length does an incoming req see
system.mem_ctrl.rdQLenPdf::31                       0                       # What read queue length does an incoming req see
system.mem_ctrl.wrQLenPdf::0                        0                       # What write queue length does an incoming req see
system.mem_ctrl.wrQLenPdf::1                        0                       # What write queue length does an incoming req see
system.mem_ctrl.wrQLenPdf::2                        0                       # What write queue length does an incoming req see
system.mem_ctrl.wrQLenPdf::3                        0                       # What write queue length does an incoming req see
system.mem_ctrl.wrQLenPdf::4                        0                       # What write queue length does an incoming req see
system.mem_ctrl.wrQLenPdf::5                        0                       # What write queue length does an incoming req see
system.mem_ctrl.wrQLenPdf::6                        0                       # What write queue length does an incoming req see
system.mem_ctrl.wrQLenPdf::7                        0                       # What write queue length does an incoming req see
system.mem_ctrl.wrQLenPdf::8                        0                       # What write queue length does an incoming req see
system.mem_ctrl.wrQLenPdf::9                        0                       # What write queue length does an incoming req see
system.mem_ctrl.wrQLenPdf::10                       0                       # What write queue length does an incoming req see
system.mem_ctrl.wrQLenPdf::11                       0                       # What write queue length does an incoming req see
system.mem_ctrl.wrQLenPdf::12                       0                       # What write queue length does an incoming req see
system.mem_ctrl.wrQLenPdf::13                       0                       # What write queue length does an incoming req see
system.mem_ctrl.wrQLenPdf::14                       0                       # What write queue length does an incoming req see
system.mem_ctrl.wrQLenPdf::15                       0                       # What write queue length does an incoming req see
system.mem_ctrl.wrQLenPdf::16                       0                       # What write queue length does an incoming req see
system.mem_ctrl.wrQLenPdf::17                       0                       # What write queue length does an incoming req see
system.mem_ctrl.wrQLenPdf::18                       0                       # What write queue length does an incoming req see
system.mem_ctrl.wrQLenPdf::19                       0                       # What write queue length does an incoming req see
system.mem_ctrl.wrQLenPdf::20                       0                       # What write queue length does an incoming req see
system.mem_ctrl.wrQLenPdf::21                       0                       # What write queue length does an incoming req see
system.mem_ctrl.wrQLenPdf::22                       0                       # What write queue length does an incoming req see
system.mem_ctrl.wrQLenPdf::23                       0                       # What write queue length does an incoming req see
system.mem_ctrl.wrQLenPdf::24                       0                       # What write queue length does an incoming req see
system.mem_ctrl.wrQLenPdf::25                       0                       # What write queue length does an incoming req see
system.mem_ctrl.wrQLenPdf::26                       0                       # What write queue length does an incoming req see
system.mem_ctrl.wrQLenPdf::27                       0                       # What write queue length does an incoming req see
system.mem_ctrl.wrQLenPdf::28                       0                       # What write queue length does an incoming req see
system.mem_ctrl.wrQLenPdf::29                       0                       # What write queue length does an incoming req see
system.mem_ctrl.wrQLenPdf::30                       0                       # What write queue length does an incoming req see
system.mem_ctrl.wrQLenPdf::31                       0                       # What write queue length does an incoming req see
system.mem_ctrl.wrQLenPdf::32                       0                       # What write queue length does an incoming req see
system.mem_ctrl.wrQLenPdf::33                       0                       # What write queue length does an incoming req see
system.mem_ctrl.wrQLenPdf::34                       0                       # What write queue length does an incoming req see
system.mem_ctrl.wrQLenPdf::35                       0                       # What write queue length does an incoming req see
system.mem_ctrl.wrQLenPdf::36                       0                       # What write queue length does an incoming req see
system.mem_ctrl.wrQLenPdf::37                       0                       # What write queue length does an incoming req see
system.mem_ctrl.wrQLenPdf::38                       0                       # What write queue length does an incoming req see
system.mem_ctrl.wrQLenPdf::39                       0                       # What write queue length does an incoming req see
system.mem_ctrl.wrQLenPdf::40                       0                       # What write queue length does an incoming req see
system.mem_ctrl.wrQLenPdf::41                       0                       # What write queue length does an incoming req see
system.mem_ctrl.wrQLenPdf::42                       0                       # What write queue length does an incoming req see
system.mem_ctrl.wrQLenPdf::43                       0                       # What write queue length does an incoming req see
system.mem_ctrl.wrQLenPdf::44                       0                       # What write queue length does an incoming req see
system.mem_ctrl.wrQLenPdf::45                       0                       # What write queue length does an incoming req see
system.mem_ctrl.wrQLenPdf::46                       0                       # What write queue length does an incoming req see
system.mem_ctrl.wrQLenPdf::47                       0                       # What write queue length does an incoming req see
system.mem_ctrl.wrQLenPdf::48                       0                       # What write queue length does an incoming req see
system.mem_ctrl.wrQLenPdf::49                       0                       # What write queue length does an incoming req see
system.mem_ctrl.wrQLenPdf::50                       0                       # What write queue length does an incoming req see
system.mem_ctrl.wrQLenPdf::51                       0                       # What write queue length does an incoming req see
system.mem_ctrl.wrQLenPdf::52                       0                       # What write queue length does an incoming req see
system.mem_ctrl.wrQLenPdf::53                       0                       # What write queue length does an incoming req see
system.mem_ctrl.wrQLenPdf::54                       0                       # What write queue length does an incoming req see
system.mem_ctrl.wrQLenPdf::55                       0                       # What write queue length does an incoming req see
system.mem_ctrl.wrQLenPdf::56                       0                       # What write queue length does an incoming req see
system.mem_ctrl.wrQLenPdf::57                       0                       # What write queue length does an incoming req see
system.mem_ctrl.wrQLenPdf::58                       0                       # What write queue length does an incoming req see
system.mem_ctrl.wrQLenPdf::59                       0                       # What write queue length does an incoming req see
system.mem_ctrl.wrQLenPdf::60                       0                       # What write queue length does an incoming req see
system.mem_ctrl.wrQLenPdf::61                       0                       # What write queue length does an incoming req see
system.mem_ctrl.wrQLenPdf::62                       0                       # What write queue length does an incoming req see
system.mem_ctrl.wrQLenPdf::63                       0                       # What write queue length does an incoming req see
system.mem_ctrl.bytesPerActivate::samples          967                       # Bytes accessed per row activation
system.mem_ctrl.bytesPerActivate::mean     314.374354                       # Bytes accessed per row activation
system.mem_ctrl.bytesPerActivate::gmean    196.324292                       # Bytes accessed per row activation
system.mem_ctrl.bytesPerActivate::stdev    319.705229                       # Bytes accessed per row activation
system.mem_ctrl.bytesPerActivate::0-127           313     32.37%     32.37% # Bytes accessed per row activation
system.mem_ctrl.bytesPerActivate::128-255          200     20.68%     53.05% # Bytes accessed per row activation
system.mem_ctrl.bytesPerActivate::256-383          239     24.72%     77.77% # Bytes accessed per row activation
system.mem_ctrl.bytesPerActivate::384-511           25      2.59%     80.35% # Bytes accessed per row activation
system.mem_ctrl.bytesPerActivate::512-639           20      2.07%     82.42% # Bytes accessed per row activation
system.mem_ctrl.bytesPerActivate::640-767           18      1.86%     84.28% # Bytes accessed per row activation
system.mem_ctrl.bytesPerActivate::768-895           18      1.86%     86.14% # Bytes accessed per row activation
system.mem_ctrl.bytesPerActivate::896-1023           11      1.14%     87.28% # Bytes accessed per row activation
system.mem_ctrl.bytesPerActivate::1024-1151          123     12.72%    100.00% # Bytes accessed per row activation
system.mem_ctrl.bytesPerActivate::total           967                       # Bytes accessed per row activation
system.mem_ctrl.bytesReadDRAM                  304000                       # Total number of bytes read from DRAM
system.mem_ctrl.bytesReadWrQ                        0                       # Total number of bytes read from write queue
system.mem_ctrl.bytesWritten                        0                       # Total number of bytes written to DRAM
system.mem_ctrl.bytesReadSys                   304000                       # Total read bytes from the system interface side
system.mem_ctrl.bytesWrittenSys                     0                       # Total written bytes from the system interface side
system.mem_ctrl.avgRdBW                         73.11                       # Average DRAM read bandwidth in MiByte/s
system.mem_ctrl.avgWrBW                          0.00                       # Average achieved write bandwidth in MiByte/s
system.mem_ctrl.avgRdBWSys                      73.11                       # Average system read bandwidth in MiByte/s
system.mem_ctrl.avgWrBWSys                       0.00                       # Average system write bandwidth in MiByte/s
system.mem_ctrl.peakBW                       12800.00                       # Theoretical peak bandwidth in MiByte/s
system.mem_ctrl.busUtil                          0.57                       # Data bus utilization in percentage
system.mem_ctrl.busUtilRead                      0.57                       # Data bus utilization in percentage for reads
system.mem_ctrl.busUtilWrite                     0.00                       # Data bus utilization in percentage for writes
system.mem_ctrl.totGap                     4157405000                       # Total gap between requests
system.mem_ctrl.avgGap                      875243.16                       # Average gap between requests
system.mem_ctrl.masterReadBytes::.cpu.inst        62592                       # Per-master bytes read from memory
system.mem_ctrl.masterReadBytes::.cpu.data       241408                       # Per-master bytes read from memory
system.mem_ctrl.masterReadRate::.cpu.inst 15052239.871986702085                       # Per-master bytes read from memory rate (Bytes/sec)
system.mem_ctrl.masterReadRate::.cpu.data 58054242.123858727515                       # Per-master bytes read from memory rate (Bytes/sec)
system.mem_ctrl.masterReadAccesses::.cpu.inst          978                       # Per-master read serviced memory accesses
system.mem_ctrl.masterReadAccesses::.cpu.data         3772                       # Per-master read serviced memory accesses
system.mem_ctrl.masterReadTotalLat::.cpu.inst     24756750                       # Per-master read total memory access latency
system.mem_ctrl.masterReadTotalLat::.cpu.data     94264000                       # Per-master read total memory access latency
system.mem_ctrl.masterReadAvgLat::.cpu.inst     25313.65                       # Per-master read average memory access latency
system.mem_ctrl.masterReadAvgLat::.cpu.data     24990.46                       # Per-master read average memory access latency
system.mem_ctrl.pageHitRate                     79.64                       # Row buffer hit rate, read and write combined
system.mem_ctrl.rank1.actEnergy               4076940                       # Energy for activate commands per rank (pJ)
system.mem_ctrl.rank1.preEnergy               2166945                       # Energy for precharge commands per rank (pJ)
system.mem_ctrl.rank1.readEnergy             16707600                       # Energy for read commands per rank (pJ)
system.mem_ctrl.rank1.writeEnergy                   0                       # Energy for write commands per rank (pJ)
system.mem_ctrl.rank1.refreshEnergy      328217760.000000                       # Energy for refresh commands per rank (pJ)
system.mem_ctrl.rank1.actBackEnergy         770637150                       # Energy for active background per rank (pJ)
system.mem_ctrl.rank1.preBackEnergy         947836800                       # Energy for precharge background per rank (pJ)
system.mem_ctrl.rank1.actPowerDownEnergy            0                       # Energy for active power-down per rank (pJ)
system.mem_ctrl.rank1.prePowerDownEnergy            0                       # Energy for precharge power-down per rank (pJ)
system.mem_ctrl.rank1.selfRefreshEnergy             0                       # Energy for self refresh per rank (pJ)
system.mem_ctrl.rank1.totalEnergy          2069643195                       # Total energy per rank (pJ)
system.mem_ctrl.rank1.averagePower         497.711622                       # Core power per rank (mW)
system.mem_ctrl.rank1.totalIdleTime                 0                       # Total Idle time Per DRAM Rank
system.mem_ctrl.rank1.memoryStateTime::IDLE   2456333250                       # Time in different power states
system.mem_ctrl.rank1.memoryStateTime::REF    138840000                       # Time in different power states
system.mem_ctrl.rank1.memoryStateTime::SREF            0                       # Time in different power states
system.mem_ctrl.rank1.memoryStateTime::PRE_PDN            0                       # Time in different power states
system.mem_ctrl.rank1.memoryStateTime::ACT   1563144750                       # Time in different power states
system.mem_ctrl.rank1.memoryStateTime::ACT_PDN            0                       # Time in different power states
system.mem_ctrl.rank0.actEnergy               2827440                       # Energy for activate commands per rank (pJ)
system.mem_ctrl.rank0.preEnergy               1502820                       # Energy for precharge commands per rank (pJ)
system.mem_ctrl.rank0.readEnergy             17207400                       # Energy for read commands per rank (pJ)
system.mem_ctrl.rank0.writeEnergy                   0                       # Energy for write commands per rank (pJ)
system.mem_ctrl.rank0.refreshEnergy      328217760.000000                       # Energy for refresh commands per rank (pJ)
system.mem_ctrl.rank0.actBackEnergy         484998180                       # Energy for active background per rank (pJ)
system.mem_ctrl.rank0.preBackEnergy        1188374880                       # Energy for precharge background per rank (pJ)
system.mem_ctrl.rank0.actPowerDownEnergy            0                       # Energy for active power-down per rank (pJ)
system.mem_ctrl.rank0.prePowerDownEnergy            0                       # Energy for precharge power-down per rank (pJ)
system.mem_ctrl.rank0.selfRefreshEnergy             0                       # Energy for self refresh per rank (pJ)
system.mem_ctrl.rank0.totalEnergy          2023128480                       # Total energy per rank (pJ)
system.mem_ctrl.rank0.averagePower         486.525677                       # Core power per rank (mW)
system.mem_ctrl.rank0.totalIdleTime                 0                       # Total Idle time Per DRAM Rank
system.mem_ctrl.rank0.memoryStateTime::IDLE   3084359250                       # Time in different power states
system.mem_ctrl.rank0.memoryStateTime::REF    138840000                       # Time in different power states
system.mem_ctrl.rank0.memoryStateTime::SREF            0                       # Time in different power states
system.mem_ctrl.rank0.memoryStateTime::PRE_PDN            0                       # Time in different power states
system.mem_ctrl.rank0.memoryStateTime::ACT    935118750                       # Time in different power states
system.mem_ctrl.rank0.memoryStateTime::ACT_PDN            0                       # Time in different power states
system.mem_ctrl.power_state.pwrStateResidencyTicks::UNDEFINED   4158318000                       # Cumulative time (in ticks) in various power states
system.cache_medium.blocked_cycles::no_mshrs            0                       # number of cycles access was blocked
system.cache_medium.blocked_cycles::no_targets            0                       # number of cycles access was blocked
system.cache_medium.blocked::no_mshrs               0                       # number of cycles access was blocked
system.cache_medium.blocked::no_targets             0                       # number of cycles access was blocked
system.cache_medium.avg_blocked_cycles::no_mshrs          nan                       # average number of cycles each access was blocked
system.cache_medium.avg_blocked_cycles::no_targets          nan                       # average number of cycles each access was blocked
system.cache_medium.replacements                    0                       # number of replacements
system.cache_medium.power_state.pwrStateResidencyTicks::UNDEFINED   4158318000                       # Cumulative time (in ticks) in various power states
system.cache_medium.tags.tagsinuse                  0                       # Cycle average of tags in use
system.cache_medium.tags.total_refs                 0                       # Total number of references to valid blocks.
system.cache_medium.tags.sampled_refs               0                       # Sample count of references to valid blocks.
system.cache_medium.tags.avg_refs                 nan                       # Average number of references to valid blocks.
system.cache_medium.tags.warmup_cycle               0                       # Cycle when the warmup percentage was hit.
system.cache_medium.tags.tag_accesses               0                       # Number of tag accesses
system.cache_medium.tags.data_accesses              0                       # Number of data accesses
system.cache_medium.tags.power_state.pwrStateResidencyTicks::UNDEFINED   4158318000                       # Cumulative time (in ticks) in various power states
system.clk_domain.clock                          1000                       # Clock period in ticks
system.clk_domain.voltage_domain.voltage            1                       # Voltage in Volts
system.dcache.demand_hits::.cpu.data           307355                       # number of demand (read+write) hits
system.dcache.demand_hits::total               307355                       # number of demand (read+write) hits
system.dcache.overall_hits::.cpu.data          307359                       # number of overall hits
system.dcache.overall_hits::total              307359                       # number of overall hits
system.dcache.demand_misses::.cpu.data           6869                       # number of demand (read+write) misses
system.dcache.demand_misses::total               6869                       # number of demand (read+write) misses
system.dcache.overall_misses::.cpu.data          6946                       # number of overall misses
system.dcache.overall_misses::total              6946                       # number of overall misses
system.dcache.demand_miss_latency::.cpu.data    329480000                       # number of demand (read+write) miss cycles
system.dcache.demand_miss_latency::total    329480000                       # number of demand (read+write) miss cycles
system.dcache.overall_miss_latency::.cpu.data    335224000                       # number of overall miss cycles
system.dcache.overall_miss_latency::total    335224000                       # number of overall miss cycles
system.dcache.demand_accesses::.cpu.data       314224                       # number of demand (read+write) accesses
system.dcache.demand_accesses::total           314224                       # number of demand (read+write) accesses
system.dcache.overall_accesses::.cpu.data       314305                       # number of overall (read+write) accesses
system.dcache.overall_accesses::total          314305                       # number of overall (read+write) accesses
system.dcache.demand_miss_rate::.cpu.data     0.021860                       # miss rate for demand accesses
system.dcache.demand_miss_rate::total        0.021860                       # miss rate for demand accesses
system.dcache.overall_miss_rate::.cpu.data     0.022100                       # miss rate for overall accesses
system.dcache.overall_miss_rate::total       0.022100                       # miss rate for overall accesses
system.dcache.demand_avg_miss_latency::.cpu.data 47966.225069                       # average overall miss latency
system.dcache.demand_avg_miss_latency::total 47966.225069                       # average overall miss latency
system.dcache.overall_avg_miss_latency::.cpu.data 48261.445436                       # average overall miss latency
system.dcache.overall_avg_miss_latency::total 48261.445436                       # average overall miss latency
system.dcache.blocked_cycles::no_mshrs              0                       # number of cycles access was blocked
system.dcache.blocked_cycles::no_targets            0                       # number of cycles access was blocked
system.dcache.blocked::no_mshrs                     0                       # number of cycles access was blocked
system.dcache.blocked::no_targets                   0                       # number of cycles access was blocked
system.dcache.avg_blocked_cycles::no_mshrs          nan                       # average number of cycles each access was blocked
system.dcache.avg_blocked_cycles::no_targets          nan                       # average number of cycles each access was blocked
system.dcache.writebacks::.writebacks            5017                       # number of writebacks
system.dcache.writebacks::total                  5017                       # number of writebacks
system.dcache.demand_mshr_misses::.cpu.data         6869                       # number of demand (read+write) MSHR misses
system.dcache.demand_mshr_misses::total          6869                       # number of demand (read+write) MSHR misses
system.dcache.overall_mshr_misses::.cpu.data         6946                       # number of overall MSHR misses
system.dcache.overall_mshr_misses::total         6946                       # number of overall MSHR misses
system.dcache.demand_mshr_miss_latency::.cpu.data    315744000                       # number of demand (read+write) MSHR miss cycles
system.dcache.demand_mshr_miss_latency::total    315744000                       # number of demand (read+write) MSHR miss cycles
system.dcache.overall_mshr_miss_latency::.cpu.data    321334000                       # number of overall MSHR miss cycles
system.dcache.overall_mshr_miss_latency::total    321334000                       # number of overall MSHR miss cycles
system.dcache.demand_mshr_miss_rate::.cpu.data     0.021860                       # mshr miss rate for demand accesses
system.dcache.demand_mshr_miss_rate::total     0.021860                       # mshr miss rate for demand accesses
system.dcache.overall_mshr_miss_rate::.cpu.data     0.022100                       # mshr miss rate for overall accesses
system.dcache.overall_mshr_miss_rate::total     0.022100                       # mshr miss rate for overall accesses
system.dcache.demand_avg_mshr_miss_latency::.cpu.data 45966.516232                       # average overall mshr miss latency
system.dcache.demand_avg_mshr_miss_latency::total 45966.516232                       # average overall mshr miss latency
system.dcache.overall_avg_mshr_miss_latency::.cpu.data 46261.733372                       # average overall mshr miss latency
system.dcache.overall_avg_mshr_miss_latency::total 46261.733372                       # average overall mshr miss latency
system.dcache.replacements                       6689                       # number of replacements
system.dcache.ReadReq_hits::.cpu.data          181649                       # number of ReadReq hits
system.dcache.ReadReq_hits::total              181649                       # number of ReadReq hits
system.dcache.ReadReq_misses::.cpu.data          2056                       # number of ReadReq misses
system.dcache.ReadReq_misses::total              2056                       # number of ReadReq misses
system.dcache.ReadReq_miss_latency::.cpu.data     54833000                       # number of ReadReq miss cycles
system.dcache.ReadReq_miss_latency::total     54833000                       # number of ReadReq miss cycles
system.dcache.ReadReq_accesses::.cpu.data       183705                       # number of ReadReq accesses(hits+misses)
system.dcache.ReadReq_accesses::total          183705                       # number of ReadReq accesses(hits+misses)
system.dcache.ReadReq_miss_rate::.cpu.data     0.011192                       # miss rate for ReadReq accesses
system.dcache.ReadReq_miss_rate::total       0.011192                       # miss rate for ReadReq accesses
system.dcache.ReadReq_avg_miss_latency::.cpu.data 26669.747082                       # average ReadReq miss latency
system.dcache.ReadReq_avg_miss_latency::total 26669.747082                       # average ReadReq miss latency
system.dcache.ReadReq_mshr_misses::.cpu.data         2056                       # number of ReadReq MSHR misses
system.dcache.ReadReq_mshr_misses::total         2056                       # number of ReadReq MSHR misses
system.dcache.ReadReq_mshr_miss_latency::.cpu.data     50721000                       # number of ReadReq MSHR miss cycles
system.dcache.ReadReq_mshr_miss_latency::total     50721000                       # number of ReadReq MSHR miss cycles
system.dcache.ReadReq_mshr_miss_rate::.cpu.data     0.011192                       # mshr miss rate for ReadReq accesses
system.dcache.ReadReq_mshr_miss_rate::total     0.011192                       # mshr miss rate for ReadReq accesses
system.dcache.ReadReq_avg_mshr_miss_latency::.cpu.data 24669.747082                       # average ReadReq mshr miss latency
system.dcache.ReadReq_avg_mshr_miss_latency::total 24669.747082                       # average ReadReq mshr miss latency
system.dcache.WriteReq_hits::.cpu.data         125706                       # number of WriteReq hits
system.dcache.WriteReq_hits::total             125706                       # number of WriteReq hits
system.dcache.WriteReq_misses::.cpu.data         4813                       # number of WriteReq misses
system.dcache.WriteReq_misses::total             4813                       # number of WriteReq misses
system.dcache.WriteReq_miss_latency::.cpu.data    274647000                       # number of WriteReq miss cycles
[...]
system.dcache.tags.age_task_id_blocks_1024::2          176                       # Occupied blocks per task id
system.dcache.tags.age_task_id_blocks_1024::3           41                       # Occupied blocks per task id
system.dcache.tags.occ_task_id_percent::1024            1                       # Percentage of cache occupancy per task id
system.dcache.tags.tag_accesses               2227851                       # Number of tag accesses
system.dcache.tags.data_accesses              2227851                       # Number of data accesses
system.dcache.tags.power_state.pwrStateResidencyTicks::UNDEFINED  28159883000                       # Cumulative time (in ticks) in various power states
system.cache_large.blocked_cycles::no_mshrs            0                       # number of cycles access was blocked
system.cache_large.blocked_cycles::no_targets            0                       # number of cycles access was blocked
system.cache_large.blocked::no_mshrs                0                       # number of cycles access was blocked
system.cache_large.blocked::no_targets              0                       # number of cycles access was blocked
system.cache_large.avg_blocked_cycles::no_mshrs          nan                       # average number of cycles each access was blocked
system.cache_large.avg_blocked_cycles::no_targets          nan                       # average number of cycles each access was blocked
system.cache_large.replacements                     0                       # number of replacements
system.cache_large.power_state.pwrStateResidencyTicks::UNDEFINED  28159883000                       # Cumulative time (in ticks) in various power states
system.cache_large.tags.tagsinuse                   0                       # Cycle average of tags in use
system.cache_large.tags.total_refs                  0                       # Total number of references to valid blocks.
system.cache_large.tags.sampled_refs                0                       # Sample count of references to valid blocks.
system.cache_large.tags.avg_refs                  nan                       # Average number of references to valid blocks.
system.cache_large.tags.warmup_cycle                0                       # Cycle when the warmup percentage was hit.
system.cache_large.tags.tag_accesses                0                       # Number of tag accesses
system.cache_large.tags.data_accesses               0                       # Number of data accesses
system.cache_large.tags.power_state.pwrStateResidencyTicks::UNDEFINED  28159883000                       # Cumulative time (in ticks) in various power states
system.l2cache.demand_hits::.cpu.inst          141506                       # number of demand (read+write) hits
system.l2cache.demand_hits::.cpu.data           18688                       # number of demand (read+write) hits
system.l2cache.demand_hits::total              160194                       # number of demand (read+write) hits
system.l2cache.overall_hits::.cpu.inst         141506                       # number of overall hits
system.l2cache.overall_hits::.cpu.data          18688                       # number of overall hits
system.l2cache.overall_hits::total             160194                       # number of overall hits
system.l2cache.demand_misses::.cpu.inst        104911                       # number of demand (read+write) misses
system.l2cache.demand_misses::.cpu.data         15351                       # number of demand (read+write) misses
system.l2cache.demand_misses::total            120262                       # number of demand (read+write) misses
system.l2cache.overall_misses::.cpu.inst       104911                       # number of overall misses
system.l2cache.overall_misses::.cpu.data        15351                       # number of overall misses
system.l2cache.overall_misses::total           120262                       # number of overall misses
system.l2cache.demand_miss_latency::.cpu.inst   1421681000                       # number of demand (read+write) miss cycles
system.l2cache.demand_miss_latency::.cpu.data    620656000                       # number of demand (read+write) miss cycles
system.l2cache.demand_miss_latency::total   2042337000                       # number of demand (read+write) miss cycles
system.l2cache.overall_miss_latency::.cpu.inst   1421681000                       # number of overall miss cycles
system.l2cache.overall_miss_latency::.cpu.data    620656000                       # number of overall miss cycles
system.l2cache.overall_miss_latency::total   2042337000                       # number of overall miss cycles
system.l2cache.demand_accesses::.cpu.inst       246417                       # number of demand (read+write) accesses
system.l2cache.demand_accesses::.cpu.data        34039                       # number of demand (read+write) accesses
system.l2cache.demand_accesses::total          280456                       # number of demand (read+write) accesses
system.l2cache.overall_accesses::.cpu.inst       246417                       # number of overall (read+write) accesses
system.l2cache.overall_accesses::.cpu.data        34039                       # number of overall (read+write) accesses
system.l2cache.overall_accesses::total         280456                       # number of overall (read+write) accesses
system.l2cache.demand_miss_rate::.cpu.inst     0.425746                       # miss rate for demand accesses
system.l2cache.demand_miss_rate::.cpu.data     0.450983                       # miss rate for demand accesses
system.l2cache.demand_miss_rate::total       0.428809                       # miss rate for demand accesses
system.l2cache.overall_miss_rate::.cpu.inst     0.425746                       # miss rate for overall accesses
system.l2cache.overall_miss_rate::.cpu.data     0.450983                       # miss rate for overall accesses
system.l2cache.overall_miss_rate::total      0.428809                       # miss rate for overall accesses
system.l2cache.demand_avg_miss_latency::.cpu.inst 13551.305392                       # average overall miss latency
system.l2cache.demand_avg_miss_latency::.cpu.data 40430.981695                       # average overall miss latency
system.l2cache.demand_avg_miss_latency::total 16982.396767                       # average overall miss latency
system.l2cache.overall_avg_miss_latency::.cpu.inst 13551.305392                       # average overall miss latency
system.l2cache.overall_avg_miss_latency::.cpu.data 40430.981695                       # average overall miss latency
system.l2cache.overall_avg_miss_latency::total 16982.396767                       # average overall miss latency
system.l2cache.blocked_cycles::no_mshrs             0                       # number of cycles access was blocked
system.l2cache.blocked_cycles::no_targets            0                       # number of cycles access was blocked
system.l2cache.blocked::no_mshrs                    0                       # number of cycles access was blocked
system.l2cache.blocked::no_targets                  0                       # number of cycles access was blocked
system.l2cache.avg_blocked_cycles::no_mshrs          nan                       # average number of cycles each access was blocked
system.l2cache.avg_blocked_cycles::no_targets          nan                       # average number of cycles each access was blocked
system.l2cache.writebacks::.writebacks          12336                       # number of writebacks
system.l2cache.writebacks::total                12336                       # number of writebacks
system.l2cache.demand_mshr_misses::.cpu.inst       104911                       # number of demand (read+write) MSHR misses
system.l2cache.demand_mshr_misses::.cpu.data        15351                       # number of demand (read+write) MSHR misses
system.l2cache.demand_mshr_misses::total       120262                       # number of demand (read+write) MSHR misses
system.l2cache.overall_mshr_misses::.cpu.inst       104911                       # number of overall MSHR misses
system.l2cache.overall_mshr_misses::.cpu.data        15351                       # number of overall MSHR misses
system.l2cache.overall_mshr_misses::total       120262                       # number of overall MSHR misses
system.l2cache.demand_mshr_miss_latency::.cpu.inst   1211859000                       # number of demand (read+write) MSHR miss cycles
system.l2cache.demand_mshr_miss_latency::.cpu.data    589954000                       # number of demand (read+write) MSHR miss cycles
system.l2cache.demand_mshr_miss_latency::total   1801813000                       # number of demand (read+write) MSHR miss cycles
system.l2cache.overall_mshr_miss_latency::.cpu.inst   1211859000                       # number of overall MSHR miss cycles
system.l2cache.overall_mshr_miss_latency::.cpu.data    589954000                       # number of overall MSHR miss cycles
system.l2cache.overall_mshr_miss_latency::total   1801813000                       # number of overall MSHR miss cycles
system.l2cache.demand_mshr_miss_rate::.cpu.inst     0.425746                       # mshr miss rate for demand accesses
system.l2cache.demand_mshr_miss_rate::.cpu.data     0.450983                       # mshr miss rate for demand accesses
system.l2cache.demand_mshr_miss_rate::total     0.428809                       # mshr miss rate for demand accesses
system.l2cache.overall_mshr_miss_rate::.cpu.inst     0.425746                       # mshr miss rate for overall accesses
system.l2cache.overall_mshr_miss_rate::.cpu.data     0.450983                       # mshr miss rate for overall accesses
system.l2cache.overall_mshr_miss_rate::total     0.428809                       # mshr miss rate for overall accesses
system.l2cache.demand_avg_mshr_miss_latency::.cpu.inst 11551.305392                       # average overall mshr miss latency
system.l2cache.demand_avg_mshr_miss_latency::.cpu.data 38430.981695                       # average overall mshr miss latency
system.l2cache.demand_avg_mshr_miss_latency::total 14982.396767                       # average overall mshr miss latency
system.l2cache.overall_avg_mshr_miss_latency::.cpu.inst 11551.305392                       # average overall mshr miss latency
system.l2cache.overall_avg_mshr_miss_latency::.cpu.data 38430.981695                       # average overall mshr miss latency
system.l2cache.overall_avg_mshr_miss_latency::total 14982.396767                       # average overall mshr miss latency
system.l2cache.replacements                    128313                       # number of replacements
system.l2cache.ReadReq_hits::.cpu.inst         141506                       # number of ReadReq hits
system.l2cache.ReadReq_hits::.cpu.data          18688                       # number of ReadReq hits
system.l2cache.ReadReq_hits::total             160194                       # number of ReadReq hits
system.l2cache.ReadReq_misses::.cpu.inst       104911                       # number of ReadReq misses
system.l2cache.ReadReq_misses::.cpu.data        15351                       # number of ReadReq misses
system.l2cache.ReadReq_misses::total           120262                       # number of ReadReq misses
system.l2cache.ReadReq_miss_latency::.cpu.inst   1421681000                       # number of ReadReq miss cycles
system.l2cache.ReadReq_miss_latency::.cpu.data    620656000                       # number of ReadReq miss cycles
system.l2cache.ReadReq_miss_latency::total   2042337000                       # number of ReadReq miss cycles
system.l2cache.ReadReq_accesses::.cpu.inst       246417                       # number of ReadReq accesses(hits+misses)
system.l2cache.ReadReq_accesses::.cpu.data        34039                       # number of ReadReq accesses(hits+misses)
system.l2cache.ReadReq_accesses::total         280456                       # number of ReadReq accesses(hits+misses)
system.l2cache.ReadReq_miss_rate::.cpu.inst     0.425746                       # miss rate for ReadReq accesses
system.l2cache.ReadReq_miss_rate::.cpu.data     0.450983                       # miss rate for ReadReq accesses
system.l2cache.ReadReq_miss_rate::total      0.428809                       # miss rate for ReadReq accesses
system.l2cache.ReadReq_avg_miss_latency::.cpu.inst 13551.305392                       # average ReadReq miss latency
system.l2cache.ReadReq_avg_miss_latency::.cpu.data 40430.981695                       # average ReadReq miss latency
system.l2cache.ReadReq_avg_miss_latency::total 16982.396767                       # average ReadReq miss latency
system.l2cache.ReadReq_mshr_misses::.cpu.inst       104911                       # number of ReadReq MSHR misses
system.l2cache.ReadReq_mshr_misses::.cpu.data        15351                       # number of ReadReq MSHR misses
system.l2cache.ReadReq_mshr_misses::total       120262                       # number of ReadReq MSHR misses
system.l2cache.ReadReq_mshr_miss_latency::.cpu.inst   1211859000                       # number of ReadReq MSHR miss cycles
system.l2cache.ReadReq_mshr_miss_latency::.cpu.data    589954000                       # number of ReadReq MSHR miss cycles
system.l2cache.ReadReq_mshr_miss_latency::total   1801813000                       # number of ReadReq MSHR miss cycles
system.l2cache.ReadReq_mshr_miss_rate::.cpu.inst     0.425746                       # mshr miss rate for ReadReq accesses
system.l2cache.ReadReq_mshr_miss_rate::.cpu.data     0.450983                       # mshr miss rate for ReadReq accesses
system.l2cache.ReadReq_mshr_miss_rate::total     0.428809                       # mshr miss rate for ReadReq accesses
system.l2cache.ReadReq_avg_mshr_miss_latency::.cpu.inst 11551.305392                       # average ReadReq mshr miss latency
system.l2cache.ReadReq_avg_mshr_miss_latency::.cpu.data 38430.981695                       # average ReadReq mshr miss latency
system.l2cache.ReadReq_avg_mshr_miss_latency::total 14982.396767                       # average ReadReq mshr miss latency
system.l2cache.WritebackDirty_hits::.writebacks        19697                       # number of WritebackDirty hits
system.l2cache.WritebackDirty_hits::total        19697                       # number of WritebackDirty hits
system.l2cache.WritebackDirty_accesses::.writebacks        19697                       # number of WritebackDirty accesses(hits+misses)
system.l2cache.WritebackDirty_accesses::total        19697                       # number of WritebackDirty accesses(hits+misses)
system.l2cache.power_state.pwrStateResidencyTicks::UNDEFINED  28159883000                       # Cumulative time (in ticks) in various power states
system.l2cache.tags.tagsinuse              510.488208                       # Cycle average of tags in use
system.l2cache.tags.total_refs                 300153                       # Total number of references to valid blocks.
system.l2cache.tags.sampled_refs               128825                       # Sample count of references to valid blocks.
system.l2cache.tags.avg_refs                 2.329928                       # Average number of references to valid blocks.
system.l2cache.tags.warmup_cycle                78000                       # Cycle when the warmup percentage was hit.
system.l2cache.tags.occ_blocks::.writebacks    95.185601                       # Average occupied blocks per requestor
system.l2cache.tags.occ_blocks::.cpu.inst   207.759853                       # Average occupied blocks per requestor
system.l2cache.tags.occ_blocks::.cpu.data   207.542754                       # Average occupied blocks per requestor
system.l2cache.tags.occ_percent::.writebacks     0.185909                       # Average percentage of cache occupancy
system.l2cache.tags.occ_percent::.cpu.inst     0.405781                       # Average percentage of cache occupancy
system.l2cache.tags.occ_percent::.cpu.data     0.405357                       # Average percentage of cache occupancy
system.l2cache.tags.occ_percent::total       0.997047                       # Average percentage of cache occupancy
system.l2cache.tags.occ_task_id_blocks::1024          512                       # Occupied blocks per task id
system.l2cache.tags.age_task_id_blocks_1024::0           47                       # Occupied blocks per task id
system.l2cache.tags.age_task_id_blocks_1024::1           67                       # Occupied blocks per task id
system.l2cache.tags.age_task_id_blocks_1024::2          250                       # Occupied blocks per task id
system.l2cache.tags.age_task_id_blocks_1024::3          148                       # Occupied blocks per task id
system.l2cache.tags.occ_task_id_percent::1024            1                       # Percentage of cache occupancy per task id
system.l2cache.tags.tag_accesses               428978                       # Number of tag accesses
system.l2cache.tags.data_accesses              428978                       # Number of data accesses
system.l2cache.tags.power_state.pwrStateResidencyTicks::UNDEFINED  28159883000                       # Cumulative time (in ticks) in various power states
system.l2bar.trans_dist::ReadReq               280456                       # Transaction distribution
system.l2bar.trans_dist::ReadResp              280456                       # Transaction distribution
system.l2bar.trans_dist::WritebackDirty         19697                       # Transaction distribution
system.l2bar.pkt_count_system.dcache.mem_side::system.l2cache.cpu_side        87775                       # Packet count per connected master and slave (bytes)
system.l2bar.pkt_count_system.icache.mem_side::system.l2cache.cpu_side       492834                       # Packet count per connected master and slave (bytes)
system.l2bar.pkt_count::total                  580609                       # Packet count per connected master and slave (bytes)
system.l2bar.pkt_size_system.dcache.mem_side::system.l2cache.cpu_side      3439104                       # Cumulative packet size per connected master and slave (bytes)
system.l2bar.pkt_size_system.icache.mem_side::system.l2cache.cpu_side     15770688                       # Cumulative packet size per connected master and slave (bytes)
system.l2bar.pkt_size::total                 19209792                       # Cumulative packet size per connected master and slave (bytes)
system.l2bar.respLayer1.occupancy          1232085000                       # Layer occupancy (ticks)
system.l2bar.respLayer1.utilization               4.4                       # Layer utilization (%)
system.l2bar.reqLayer0.occupancy            378941000                       # Layer occupancy (ticks)
system.l2bar.reqLayer0.utilization                1.3                       # Layer utilization (%)
system.l2bar.respLayer0.occupancy           170195000                       # Layer occupancy (ticks)
system.l2bar.respLayer0.utilization               0.6                       # Layer utilization (%)
system.l2bar.power_state.pwrStateResidencyTicks::UNDEFINED  28159883000                       # Cumulative time (in ticks) in various power states
system.cpu.dtb.walker.power_state.pwrStateResidencyTicks::UNDEFINED  28159883000                       # Cumulative time (in ticks) in various power states
system.cpu.interrupts.clk_domain.clock          16000                       # Clock period in ticks
system.cpu.itb.walker.power_state.pwrStateResidencyTicks::UNDEFINED  28159883000                       # Cumulative time (in ticks) in various power states
system.cpu.power_state.numTransitions               1                       # Number of power state transitions
system.cpu.power_state.pwrStateResidencyTicks::ON  28159883000                       # Cumulative time (in ticks) in various power states

---------- End Simulation Statistics   ----------
