
---------- Begin Simulation Statistics ----------
final_tick                                 5197269000                       # Number of ticks from beginning of simulation (restored from checkpoints and never reset)
host_inst_rate                                  89827                       # Simulator instruction rate (inst/s)
host_mem_usage                               34261720                       # Number of bytes of host memory used
host_op_rate                                   162087                       # Simulator op (including micro ops) rate (op/s)
host_seconds                                    11.13                       # Real time elapsed on the host
host_tick_rate                              466842627                       # Simulator tick rate (ticks/s)
sim_freq                                 1000000000000                       # Frequency of simulated ticks
sim_insts                                     1000001                       # Number of instructions simulated
sim_ops                                       1804475                       # Number of ops (including micro ops) simulated
sim_seconds                                  0.005197                       # Number of seconds simulated
sim_ticks                                  5197269000                       # Number of ticks simulated
system.cpu.Branches                            205593                       # Number of branches fetched
system.cpu.committedInsts                     1000001                       # Number of instructions committed
system.cpu.committedOps                       1804475                       # Number of ops (including micro ops) committed
system.cpu.dtb.rdAccesses                      210775                       # TLB accesses on read requests
system.cpu.dtb.rdMisses                           104                       # TLB misses on read requests
system.cpu.dtb.wrAccesses                      156157                       # TLB accesses on write requests
system.cpu.dtb.wrMisses                           132                       # TLB misses on write requests
system.cpu.idle_fraction                            0                       # Percentage of idle cycles
system.cpu.itb.rdAccesses                           0                       # TLB accesses on read requests
system.cpu.itb.rdMisses                             0                       # TLB misses on read requests
system.cpu.itb.wrAccesses                     1332480                       # TLB accesses on write requests
system.cpu.itb.wrMisses                          1110                       # TLB misses on write requests
system.cpu.not_idle_fraction                        1                       # Percentage of non-idle cycles
system.cpu.numCycles                          5197258                       # number of cpu cycles simulated
system.cpu.numWorkItemsCompleted                    0                       # number of work items this cpu completed
system.cpu.numWorkItemsStarted                      0                       # number of work items this cpu started
system.cpu.num_busy_cycles                    5197258                       # Number of busy cycles
system.cpu.num_cc_register_reads              1099309                       # number of times the CC registers were read
system.cpu.num_cc_register_writes              688280                       # number of times the CC registers were written
system.cpu.num_conditional_control_insts       162376                       # number of instructions that are conditional controls
system.cpu.num_fp_alu_accesses                  25985                       # Number of float alu accesses
system.cpu.num_fp_insts                         25985                       # number of float instructions
system.cpu.num_fp_register_reads                33304                       # number of times the floating registers were read
system.cpu.num_fp_register_writes               10256                       # number of times the floating registers were written
system.cpu.num_func_calls                       26893                       # number of times a function call or return occured
system.cpu.num_idle_cycles                          0                       # Number of idle cycles
system.cpu.num_int_alu_accesses               1784264                       # Number of integer alu accesses
system.cpu.num_int_insts                      1784264                       # number of integer instructions
system.cpu.num_int_register_reads             3577239                       # number of times the integer registers were read
system.cpu.num_int_register_writes            1465055                       # number of times the integer registers were written
system.cpu.num_load_insts                      210660                       # Number of load instructions
system.cpu.num_mem_refs                        366815                       # number of memory refs
system.cpu.num_store_insts                     156155                       # Number of store instructions
system.cpu.num_vec_alu_accesses                     0                       # Number of vector alu accesses
system.cpu.num_vec_insts                            0                       # number of vector instructions
system.cpu.num_vec_register_reads                   0                       # number of times the vector registers were read
system.cpu.num_vec_register_writes                  0                       # number of times the vector registers were written
system.cpu.op_class::No_OpClass                 10803      0.60%      0.60% # Class of executed instruction
system.cpu.op_class::IntAlu                   1398688     77.51%     78.11% # Class of executed instruction
system.cpu.op_class::IntMult                     1046      0.06%     78.17% # Class of executed instruction
system.cpu.op_class::IntDiv                     17600      0.98%     79.14% # Class of executed instruction
system.cpu.op_class::FloatAdd                     477      0.03%     79.17% # Class of executed instruction
system.cpu.op_class::FloatCmp                       0      0.00%     79.17% # Class of executed instruction
system.cpu.op_class::FloatCvt                       0      0.00%     79.17% # Class of executed instruction
system.cpu.op_class::FloatMult                      0      0.00%     79.17% # Class of executed instruction
system.cpu.op_class::FloatMultAcc                   0      0.00%     79.17% # Class of executed instruction
system.cpu.op_class::FloatDiv                       0      0.00%     79.17% # Class of executed instruction
system.cpu.op_class::FloatMisc                      0      0.00%     79.17% # Class of executed instruction
system.cpu.op_class::FloatSqrt                      0      0.00%     79.17% # Class of executed instruction
system.cpu.op_class::SimdAdd                        8      0.00%     79.17% # Class of executed instruction
system.cpu.op_class::SimdAddAcc                     0      0.00%     79.17% # Class of executed instruction
system.cpu.op_class::SimdAlu                     2091      0.12%     79.28% # Class of executed instruction
system.cpu.op_class::SimdCmp                        0      0.00%     79.28% # Class of executed instruction
system.cpu.op_class::SimdCvt                     1832      0.10%     79.39% # Class of executed instruction
system.cpu.op_class::SimdMisc                    5173      0.29%     79.67% # Class of executed instruction
system.cpu.op_class::SimdMult                       0      0.00%     79.67% # Class of executed instruction
system.cpu.op_class::SimdMultAcc                    0      0.00%     79.67% # Class of executed instruction
system.cpu.op_class::SimdShift                      3      0.00%     79.67% # Class of executed instruction
system.cpu.op_class::SimdShiftAcc                   0      0.00%     79.67% # Class of executed instruction
system.cpu.op_class::SimdDiv                        0      0.00%     79.67% # Class of executed instruction
system.cpu.op_class::SimdSqrt                       0      0.00%     79.67% # Class of executed instruction
system.cpu.op_class::SimdFloatAdd                   0      0.00%     79.67% # Class of executed instruction
system.cpu.op_class::SimdFloatAlu                   0      0.00%     79.67% # Class of executed instruction
system.cpu.op_class::SimdFloatCmp                   0      0.00%     79.67% # Class of executed instruction
system.cpu.op_class::SimdFloatCvt                   0      0.00%     79.67% # Class of executed instruction
system.cpu.op_class::SimdFloatDiv                   0      0.00%     79.67% # Class of executed instruction
system.cpu.op_class::SimdFloatMisc                  0      0.00%     79.67% # Class of executed instruction
system.cpu.op_class::SimdFloatMult                  0      0.00%     79.67% # Class of executed instruction
system.cpu.op_class::SimdFloatMultAcc               0      0.00%     79.67% # Class of executed instruction
system.cpu.op_class::SimdFloatSqrt                  0      0.00%     79.67% # Class of executed instruction
system.cpu.op_class::SimdReduceAdd                  0      0.00%     79.67% # Class of executed instruction
system.cpu.op_class::SimdReduceAlu                  0      0.00%     79.67% # Class of executed instruction
system.cpu.op_class::SimdReduceCmp                  0      0.00%     79.67% # Class of executed instruction
system.cpu.op_class::SimdFloatReduceAdd             0      0.00%     79.67% # Class of executed instruction
system.cpu.op_class::SimdFloatReduceCmp             0      0.00%     79.67% # Class of executed instruction
system.cpu.op_class::SimdAes                        0      0.00%     79.67% # Class of executed instruction
system.cpu.op_class::SimdAesMix                     0      0.00%     79.67% # Class of executed instruction
system.cpu.op_class::SimdSha1Hash                   0      0.00%     79.67% # Class of executed instruction
system.cpu.op_class::SimdSha1Hash2                  0      0.00%     79.67% # Class of executed instruction
system.cpu.op_class::SimdSha256Hash                 0      0.00%     79.67% # Class of executed instruction
system.cpu.op_class::SimdSha256Hash2                0      0.00%     79.67% # Class of executed instruction
system.cpu.op_class::SimdShaSigma2                  0      0.00%     79.67% # Class of executed instruction
system.cpu.op_class::SimdShaSigma3                  0      0.00%     79.67% # Class of executed instruction
system.cpu.op_class::SimdPredAlu                    0      0.00%     79.67% # Class of executed instruction
system.cpu.op_class::MemRead                   208987     11.58%     91.25% # Class of executed instruction
system.cpu.op_class::MemWrite                  142260      7.88%     99.14% # Class of executed instruction
system.cpu.op_class::FloatMemRead                1673      0.09%     99.23% # Class of executed instruction
system.cpu.op_class::FloatMemWrite              13895      0.77%    100.00% # Class of executed instruction
system.cpu.op_class::IprAccess                      0      0.00%    100.00% # Class of executed instruction
system.cpu.op_class::InstPrefetch                   0      0.00%    100.00% # Class of executed instruction
system.cpu.op_class::total                    1804536                       # Class of executed instruction
system.cpu.workload.numSyscalls                    44                       # Number of system calls
system.dynamic_cache.flushTicks                     0                       # Ticks taken to flush
system.dynamic_cache.numFlushes                     0                       # Number of Flushes Taken
system.cache_small.demand_hits::.cpu.inst        24245                       # number of demand (read+write) hits
system.cache_small.demand_hits::.cpu.data         5220                       # number of demand (read+write) hits
system.cache_small.demand_hits::total           29465                       # number of demand (read+write) hits
system.cache_small.overall_hits::.cpu.inst        24245                       # number of overall hits
system.cache_small.overall_hits::.cpu.data         5220                       # number of overall hits
system.cache_small.overall_hits::total          29465                       # number of overall hits
system.cache_small.demand_misses::.cpu.inst         7581                       # number of demand (read+write) misses
system.cache_small.demand_misses::.cpu.data         5240                       # number of demand (read+write) misses
system.cache_small.demand_misses::total         12821                       # number of demand (read+write) misses
system.cache_small.overall_misses::.cpu.inst         7581                       # number of overall misses
system.cache_small.overall_misses::.cpu.data         5240                       # number of overall misses
system.cache_small.overall_misses::total        12821                       # number of overall misses
system.cache_small.demand_miss_latency::.cpu.inst    479662000                       # number of demand (read+write) miss cycles
system.cache_small.demand_miss_latency::.cpu.data    321388000                       # number of demand (read+write) miss cycles
system.cache_small.demand_miss_latency::total    801050000                       # number of demand (read+write) miss cycles
system.cache_small.overall_miss_latency::.cpu.inst    479662000                       # number of overall miss cycles
system.cache_small.overall_miss_latency::.cpu.data    321388000                       # number of overall miss cycles
system.cache_small.overall_miss_latency::total    801050000                       # number of overall miss cycles
system.cache_small.demand_accesses::.cpu.inst        31826                       # number of demand (read+write) accesses
system.cache_small.demand_accesses::.cpu.data        10460                       # number of demand (read+write) accesses
system.cache_small.demand_accesses::total        42286                       # number of demand (read+write) accesses
system.cache_small.overall_accesses::.cpu.inst        31826                       # number of overall (read+write) accesses
system.cache_small.overall_accesses::.cpu.data        10460                       # number of overall (read+write) accesses
system.cache_small.overall_accesses::total        42286                       # number of overall (read+write) accesses
system.cache_small.demand_miss_rate::.cpu.inst     0.238201                       # miss rate for demand accesses
system.cache_small.demand_miss_rate::.cpu.data     0.500956                       # miss rate for demand accesses
system.cache_small.demand_miss_rate::total     0.303197                       # miss rate for demand accesses
system.cache_small.overall_miss_rate::.cpu.inst     0.238201                       # miss rate for overall accesses
system.cache_small.overall_miss_rate::.cpu.data     0.500956                       # miss rate for overall accesses
system.cache_small.overall_miss_rate::total     0.303197                       # miss rate for overall accesses
system.cache_small.demand_avg_miss_latency::.cpu.inst 63271.600053                       # average overall miss latency
system.cache_small.demand_avg_miss_latency::.cpu.data 61333.587786                       # average overall miss latency
system.cache_small.demand_avg_miss_latency::total 62479.525778                       # average overall miss latency
system.cache_small.overall_avg_miss_latency::.cpu.inst 63271.600053                       # average overall miss latency
system.cache_small.overall_avg_miss_latency::.cpu.data 61333.587786                       # average overall miss latency
system.cache_small.overall_avg_miss_latency::total 62479.525778                       # average overall miss latency
system.cache_small.blocked_cycles::no_mshrs            0                       # number of cycles access was blocked
system.cache_small.blocked_cycles::no_targets            0                       # number of cycles access was blocked
system.cache_small.blocked::no_mshrs                0                       # number of cycles access was blocked
system.cache_small.blocked::no_targets              0                       # number of cycles access was blocked
system.cache_small.avg_blocked_cycles::no_mshrs          nan                       # average number of cycles each access was blocked
system.cache_small.avg_blocked_cycles::no_targets          nan                       # average number of cycles each access was blocked
system.cache_small.writebacks::.writebacks         2345                       # number of writebacks
system.cache_small.writebacks::total             2345                       # number of writebacks
system.cache_small.demand_mshr_misses::.cpu.inst         7581                       # number of demand (read+write) MSHR misses
system.cache_small.demand_mshr_misses::.cpu.data         5240                       # number of demand (read+write) MSHR misses
system.cache_small.demand_mshr_misses::total        12821                       # number of demand (read+write) MSHR misses
system.cache_small.overall_mshr_misses::.cpu.inst         7581                       # number of overall MSHR misses
system.cache_small.overall_mshr_misses::.cpu.data         5240                       # number of overall MSHR misses
system.cache_small.overall_mshr_misses::total        12821                       # number of overall MSHR misses
system.cache_small.demand_mshr_miss_latency::.cpu.inst    464500000                       # number of demand (read+write) MSHR miss cycles
system.cache_small.demand_mshr_miss_latency::.cpu.data    310908000                       # number of demand (read+write) MSHR miss cycles
system.cache_small.demand_mshr_miss_latency::total    775408000                       # number of demand (read+write) MSHR miss cycles
system.cache_small.overall_mshr_miss_latency::.cpu.inst    464500000                       # number of overall MSHR miss cycles
system.cache_small.overall_mshr_miss_latency::.cpu.data    310908000                       # number of overall MSHR miss cycles
system.cache_small.overall_mshr_miss_latency::total    775408000                       # number of overall MSHR miss cycles
system.cache_small.demand_mshr_miss_rate::.cpu.inst     0.238201                       # mshr miss rate for demand accesses
system.cache_small.demand_mshr_miss_rate::.cpu.data     0.500956                       # mshr miss rate for demand accesses
system.cache_small.demand_mshr_miss_rate::total     0.303197                       # mshr miss rate for demand accesses
system.cache_small.overall_mshr_miss_rate::.cpu.inst     0.238201                       # mshr miss rate for overall accesses
system.cache_small.overall_mshr_miss_rate::.cpu.data     0.500956                       # mshr miss rate for overall accesses
system.cache_small.overall_mshr_miss_rate::total     0.303197                       # mshr miss rate for overall accesses
system.cache_small.demand_avg_mshr_miss_latency::.cpu.inst 61271.600053                       # average overall mshr miss latency
system.cache_small.demand_avg_mshr_miss_latency::.cpu.data 59333.587786                       # average overall mshr miss latency
system.cache_small.demand_avg_mshr_miss_latency::total 60479.525778                       # average overall mshr miss latency
system.cache_small.overall_avg_mshr_miss_latency::.cpu.inst 61271.600053                       # average overall mshr miss latency
system.cache_small.overall_avg_mshr_miss_latency::.cpu.data 59333.587786                       # average overall mshr miss latency
system.cache_small.overall_avg_mshr_miss_latency::total 60479.525778                       # average overall mshr miss latency
system.cache_small.replacements                 10045                       # number of replacements
system.cache_small.ReadReq_hits::.cpu.inst        24245                       # number of ReadReq hits
system.cache_small.ReadReq_hits::.cpu.data         5220                       # number of ReadReq hits
system.cache_small.ReadReq_hits::total          29465                       # number of ReadReq hits
system.cache_small.ReadReq_misses::.cpu.inst         7581                       # number of ReadReq misses
system.cache_small.ReadReq_misses::.cpu.data         5240                       # number of ReadReq misses
system.cache_small.ReadReq_misses::total        12821                       # number of ReadReq misses
system.cache_small.ReadReq_miss_latency::.cpu.inst    479662000                       # number of ReadReq miss cycles
system.cache_small.ReadReq_miss_latency::.cpu.data    321388000                       # number of ReadReq miss cycles
system.cache_small.ReadReq_miss_latency::total    801050000                       # number of ReadReq miss cycles
system.cache_small.ReadReq_accesses::.cpu.inst        31826                       # number of ReadReq accesses(hits+misses)
system.cache_small.ReadReq_accesses::.cpu.data        10460                       # number of ReadReq accesses(hits+misses)
system.cache_small.ReadReq_accesses::total        42286                       # number of ReadReq accesses(hits+misses)
system.cache_small.ReadReq_miss_rate::.cpu.inst     0.238201                       # miss rate for ReadReq accesses
system.cache_small.ReadReq_miss_rate::.cpu.data     0.500956                       # miss rate for ReadReq accesses
system.cache_small.ReadReq_miss_rate::total     0.303197                       # miss rate for ReadReq accesses
system.cache_small.ReadReq_avg_miss_latency::.cpu.inst 63271.600053                       # average ReadReq miss latency
system.cache_small.ReadReq_avg_miss_latency::.cpu.data 61333.587786                       # average ReadReq miss latency
system.cache_small.ReadReq_avg_miss_latency::total 62479.525778                       # average ReadReq miss latency
system.cache_small.ReadReq_mshr_misses::.cpu.inst         7581                       # number of ReadReq MSHR misses
system.cache_small.ReadReq_mshr_misses::.cpu.data         5240                       # number of ReadReq MSHR misses
system.cache_small.ReadReq_mshr_misses::total        12821                       # number of ReadReq MSHR misses
system.cache_small.ReadReq_mshr_miss_latency::.cpu.inst    464500000                       # number of ReadReq MSHR miss cycles
system.cache_small.ReadReq_mshr_miss_latency::.cpu.data    310908000                       # number of ReadReq MSHR miss cycles
system.cache_small.ReadReq_mshr_miss_latency::total    775408000                       # number of ReadReq MSHR miss cycles
system.cache_small.ReadReq_mshr_miss_rate::.cpu.inst     0.238201                       # mshr miss rate for ReadReq accesses
system.cache_small.ReadReq_mshr_miss_rate::.cpu.data     0.500956                       # mshr miss rate for ReadReq accesses
system.cache_small.ReadReq_mshr_miss_rate::total     0.303197                       # mshr miss rate for ReadReq accesses
system.cache_small.ReadReq_avg_mshr_miss_latency::.cpu.inst 61271.600053                       # average ReadReq mshr miss latency
system.cache_small.ReadReq_avg_mshr_miss_latency::.cpu.data 59333.587786                       # average ReadReq mshr miss latency
system.cache_small.ReadReq_avg_mshr_miss_latency::total 60479.525778                       # average ReadReq mshr miss latency
system.cache_small.WritebackDirty_hits::.writebacks         7570                       # number of WritebackDirty hits
system.cache_small.WritebackDirty_hits::total         7570                       # number of WritebackDirty hits
system.cache_small.WritebackDirty_accesses::.writebacks         7570                       # number of WritebackDirty accesses(hits+misses)
system.cache_small.WritebackDirty_accesses::total         7570                       # number of WritebackDirty accesses(hits+misses)
system.cache_small.power_state.pwrStateResidencyTicks::UNDEFINED   5197269000                       # Cumulative time (in ticks) in various power states
system.cache_small.tags.tagsinuse         2758.574437                       # Cycle average of tags in use
system.cache_small.tags.total_refs              29659                       # Total number of references to valid blocks.
system.cache_small.tags.sampled_refs            10045                       # Sample count of references to valid blocks.
system.cache_small.tags.avg_refs             2.952613                       # Average number of references to valid blocks.
system.cache_small.tags.warmup_cycle            76000                       # Cycle when the warmup percentage was hit.
system.cache_small.tags.occ_blocks::.writebacks   125.273999                       # Average occupied blocks per requestor
system.cache_small.tags.occ_blocks::.cpu.inst  1017.294642                       # Average occupied blocks per requestor
system.cache_small.tags.occ_blocks::.cpu.data  1616.005796                       # Average occupied blocks per requestor
system.cache_small.tags.occ_percent::.writebacks     0.030584                       # Average percentage of cache occupancy
system.cache_small.tags.occ_percent::.cpu.inst     0.248363                       # Average percentage of cache occupancy
system.cache_small.tags.occ_percent::.cpu.data     0.394533                       # Average percentage of cache occupancy
system.cache_small.tags.occ_percent::total     0.673480                       # Average percentage of cache occupancy
system.cache_small.tags.occ_task_id_blocks::1024         3854                       # Occupied blocks per task id
system.cache_small.tags.age_task_id_blocks_1024::0           16                       # Occupied blocks per task id
system.cache_small.tags.age_task_id_blocks_1024::1          106                       # Occupied blocks per task id
system.cache_small.tags.age_task_id_blocks_1024::2          820                       # Occupied blocks per task id
system.cache_small.tags.age_task_id_blocks_1024::3         2912                       # Occupied blocks per task id
system.cache_small.tags.occ_task_id_percent::1024     0.940918                       # Percentage of cache occupancy per task id
system.cache_small.tags.tag_accesses            63755                       # Number of tag accesses
system.cache_small.tags.data_accesses           63755                       # Number of data accesses
system.cache_small.tags.power_state.pwrStateResidencyTicks::UNDEFINED   5197269000                       # Cumulative time (in ticks) in various power states
system.icache.demand_hits::.cpu.inst          1290556                       # number of demand (read+write) hits
system.icache.demand_hits::total              1290556                       # number of demand (read+write) hits
system.icache.overall_hits::.cpu.inst         1290556                       # number of overall hits
system.icache.overall_hits::total             1290556                       # number of overall hits
system.icache.demand_misses::.cpu.inst          41924                       # number of demand (read+write) misses
system.icache.demand_misses::total              41924                       # number of demand (read+write) misses
system.icache.overall_misses::.cpu.inst         41924                       # number of overall misses
system.icache.overall_misses::total             41924                       # number of overall misses
system.icache.demand_miss_latency::.cpu.inst   1222102000                       # number of demand (read+write) miss cycles
system.icache.demand_miss_latency::total   1222102000                       # number of demand (read+write) miss cycles
system.icache.overall_miss_latency::.cpu.inst   1222102000                       # number of overall miss cycles
system.icache.overall_miss_latency::total   1222102000                       # number of overall miss cycles
system.icache.demand_accesses::.cpu.inst      1332480                       # number of demand (read+write) accesses
system.icache.demand_accesses::total          1332480                       # number of demand (read+write) accesses
system.icache.overall_accesses::.cpu.inst      1332480                       # number of overall (read+write) accesses
system.icache.overall_accesses::total         1332480                       # number of overall (read+write) accesses
system.icache.demand_miss_rate::.cpu.inst     0.031463                       # miss rate for demand accesses
system.icache.demand_miss_rate::total        0.031463                       # miss rate for demand accesses
system.icache.overall_miss_rate::.cpu.inst     0.031463                       # miss rate for overall accesses
system.icache.overall_miss_rate::total       0.031463                       # miss rate for overall accesses
system.icache.demand_avg_miss_latency::.cpu.inst 29150.415037                       # average overall miss latency
system.icache.demand_avg_miss_latency::total 29150.415037                       # average overall miss latency
system.icache.overall_avg_miss_latency::.cpu.inst 29150.415037                       # average overall miss latency
system.icache.overall_avg_miss_latency::total 29150.415037                       # average overall miss latency
system.icache.blocked_cycles::no_mshrs              0                       # number of cycles access was blocked
system.icache.blocked_cycles::no_targets            0                       # number of cycles access was blocked
system.icache.blocked::no_mshrs                     0                       # number of cycles access was blocked
system.icache.blocked::no_targets                   0                       # number of cycles access was blocked
system.icache.avg_blocked_cycles::no_mshrs          nan                       # average number of cycles each access was blocked
system.icache.avg_blocked_cycles::no_targets          nan                       # average number of cycles each access was blocked
system.icache.demand_mshr_misses::.cpu.inst        41924                       # number of demand (read+write) MSHR misses
system.icache.demand_mshr_misses::total         41924                       # number of demand (read+write) MSHR misses
system.icache.overall_mshr_misses::.cpu.inst        41924                       # number of overall MSHR misses
system.icache.overall_mshr_misses::total        41924                       # number of overall MSHR misses
system.icache.demand_mshr_miss_latency::.cpu.inst   1138256000                       # number of demand (read+write) MSHR miss cycles
system.icache.demand_mshr_miss_latency::total   1138256000                       # number of demand (read+write) MSHR miss cycles
system.icache.overall_mshr_miss_latency::.cpu.inst   1138256000                       # number of overall MSHR miss cycles
system.icache.overall_mshr_miss_latency::total   1138256000                       # number of overall MSHR miss cycles
system.icache.demand_mshr_miss_rate::.cpu.inst     0.031463                       # mshr miss rate for demand accesses
system.icache.demand_mshr_miss_rate::total     0.031463                       # mshr miss rate for demand accesses
system.icache.overall_mshr_miss_rate::.cpu.inst     0.031463                       # mshr miss rate for overall accesses
system.icache.overall_mshr_miss_rate::total     0.031463                       # mshr miss rate for overall accesses
system.icache.demand_avg_mshr_miss_latency::.cpu.inst 27150.462742                       # average overall mshr miss latency
system.icache.demand_avg_mshr_miss_latency::total 27150.462742                       # average overall mshr miss latency
system.icache.overall_avg_mshr_miss_latency::.cpu.inst 27150.462742                       # average overall mshr miss latency
system.icache.overall_avg_mshr_miss_latency::total 27150.462742                       # average overall mshr miss latency
system.icache.replacements                      41667                       # number of replacements
system.icache.ReadReq_hits::.cpu.inst         1290556                       # number of ReadReq hits
system.icache.ReadReq_hits::total             1290556                       # number of ReadReq hits
system.icache.ReadReq_misses::.cpu.inst         41924                       # number of ReadReq misses
system.icache.ReadReq_misses::total             41924                       # number of ReadReq misses
system.icache.ReadReq_miss_latency::.cpu.inst   1222102000                       # number of ReadReq miss cycles
system.icache.ReadReq_miss_latency::total   1222102000                       # number of ReadReq miss cycles
system.icache.ReadReq_accesses::.cpu.inst      1332480                       # number of ReadReq accesses(hits+misses)
system.icache.ReadReq_accesses::total         1332480                       # number of ReadReq accesses(hits+misses)
system.icache.ReadReq_miss_rate::.cpu.inst     0.031463                       # miss rate for ReadReq accesses
system.icache.ReadReq_miss_rate::total       0.031463                       # miss rate for ReadReq accesses
system.icache.ReadReq_avg_miss_latency::.cpu.inst 29150.415037                       # average ReadReq miss latency
system.icache.ReadReq_avg_miss_latency::total 29150.415037                       # average ReadReq miss latency
system.icache.ReadReq_mshr_misses::.cpu.inst        41924                       # number of ReadReq MSHR misses
system.icache.ReadReq_mshr_misses::total        41924                       # number of ReadReq MSHR misses
system.icache.ReadReq_mshr_miss_latency::.cpu.inst   1138256000                       # number of ReadReq MSHR miss cycles
system.icache.ReadReq_mshr_miss_latency::total   1138256000                       # number of ReadReq MSHR miss cycles
system.icache.ReadReq_mshr_miss_rate::.cpu.inst     0.031463                       # mshr miss rate for ReadReq accesses
system.icache.ReadReq_mshr_miss_rate::total     0.031463                       # mshr miss rate for ReadReq accesses
system.icache.ReadReq_avg_mshr_miss_latency::.cpu.inst 27150.462742                       # average ReadReq mshr miss latency
system.icache.ReadReq_avg_mshr_miss_latency::total 27150.462742                       # average ReadReq mshr miss latency
system.icache.power_state.pwrStateResidencyTicks::UNDEFINED   5197269000                       # Cumulative time (in ticks) in various power states
system.icache.tags.tagsinuse               251.066368                       # Cycle average of tags in use
system.icache.tags.total_refs                 1322210                       # Total number of references to valid blocks.
system.icache.tags.sampled_refs                 41667                       # Sample count of references to valid blocks.
system.icache.tags.avg_refs                 31.732786                       # Average number of references to valid blocks.
system.icache.tags.warmup_cycle                 82000                       # Cycle when the warmup percentage was hit.
system.icache.tags.occ_blocks::.cpu.inst   251.066368                       # Average occupied blocks per requestor
system.icache.tags.occ_percent::.cpu.inst     0.980728                       # Average percentage of cache occupancy
system.icache.tags.occ_percent::total        0.980728                       # Average percentage of cache occupancy
system.icache.tags.occ_task_id_blocks::1024          256                       # Occupied blocks per task id
system.icache.tags.age_task_id_blocks_1024::0           61                       # Occupied blocks per task id
system.icache.tags.age_task_id_blocks_1024::1          155                       # Occupied blocks per task id
system.icache.tags.age_task_id_blocks_1024::2           35                       # Occupied blocks per task id
system.icache.tags.age_task_id_blocks_1024::3            5                       # Occupied blocks per task id
system.icache.tags.occ_task_id_percent::1024            1                       # Percentage of cache occupancy per task id
system.icache.tags.tag_accesses               1374403                       # Number of tag accesses
system.icache.tags.data_accesses              1374403                       # Number of data accesses
system.icache.tags.power_state.pwrStateResidencyTicks::UNDEFINED   5197269000                       # Cumulative time (in ticks) in various power states
system.membus.trans_dist::ReadReq               12821                       # Transaction distribution
system.membus.trans_dist::ReadResp              12821                       # Transaction distribution
system.membus.trans_dist::WritebackDirty         2345                       # Transaction distribution
system.membus.pkt_count_system.cache_small.mem_side::system.mem_ctrl.port        27987                       # Packet count per connected master and slave (bytes)
system.membus.pkt_count_system.cache_small.mem_side::total        27987                       # Packet count per connected master and slave (bytes)
system.membus.pkt_count::total                  27987                       # Packet count per connected master and slave (bytes)
system.membus.pkt_size_system.cache_small.mem_side::system.mem_ctrl.port       970624                       # Cumulative packet size per connected master and slave (bytes)
system.membus.pkt_size_system.cache_small.mem_side::total       970624                       # Cumulative packet size per connected master and slave (bytes)
system.membus.pkt_size::total                  970624                       # Cumulative packet size per connected master and slave (bytes)
system.membus.reqLayer2.occupancy            24546000                       # Layer occupancy (ticks)
system.membus.reqLayer2.utilization               0.5                       # Layer utilization (%)
system.membus.respLayer1.occupancy           68867250                       # Layer occupancy (ticks)
system.membus.respLayer1.utilization              1.3                       # Layer utilization (%)
system.membus.power_state.pwrStateResidencyTicks::UNDEFINED   5197269000                       # Cumulative time (in ticks) in various power states
system.mem_ctrl.bytes_read::.cpu.inst          485184                       # Number of bytes read from this memory
system.mem_ctrl.bytes_read::.cpu.data          335360                       # Number of bytes read from this memory
system.mem_ctrl.bytes_read::total              820544                       # Number of bytes read from this memory
system.mem_ctrl.bytes_inst_read::.cpu.inst       485184                       # Number of instructions bytes read from this memory
system.mem_ctrl.bytes_inst_read::total         485184                       # Number of instructions bytes read from this memory
system.mem_ctrl.bytes_written::.writebacks       150080                       # Number of bytes written to this memory
system.mem_ctrl.bytes_written::total           150080                       # Number of bytes written to this memory
system.mem_ctrl.num_reads::.cpu.inst             7581                       # Number of read requests responded to by this memory
system.mem_ctrl.num_reads::.cpu.data             5240                       # Number of read requests responded to by this memory
system.mem_ctrl.num_reads::total                12821                       # Number of read requests responded to by this memory
system.mem_ctrl.num_writes::.writebacks          2345                       # Number of write requests responded to by this memory
system.mem_ctrl.num_writes::total                2345                       # Number of write requests responded to by this memory
system.mem_ctrl.bw_read::.cpu.inst           93353644                       # Total read bandwidth from this memory (bytes/s)
system.mem_ctrl.bw_read::.cpu.data           64526196                       # Total read bandwidth from this memory (bytes/s)
system.mem_ctrl.bw_read::total              157879840                       # Total read bandwidth from this memory (bytes/s)
system.mem_ctrl.bw_inst_read::.cpu.inst      93353644                       # Instruction read bandwidth from this memory (bytes/s)
system.mem_ctrl.bw_inst_read::total          93353644                       # Instruction read bandwidth from this memory (bytes/s)
system.mem_ctrl.bw_write::.writebacks        28876704                       # Write bandwidth from this memory (bytes/s)
system.mem_ctrl.bw_write::total              28876704                       # Write bandwidth from this memory (bytes/s)
system.mem_ctrl.bw_total::.writebacks        28876704                       # Total bandwidth to/from this memory (bytes/s)
system.mem_ctrl.bw_total::.cpu.inst          93353644                       # Total bandwidth to/from this memory (bytes/s)
system.mem_ctrl.bw_total::.cpu.data          64526196                       # Total bandwidth to/from this memory (bytes/s)
system.mem_ctrl.bw_total::total             186756545                       # Total bandwidth to/from this memory (bytes/s)
system.mem_ctrl.avgPriority_.writebacks::samples      2214.00                       # Average QoS priority value for accepted requests
system.mem_ctrl.avgPriority_.cpu.inst::samples      7581.00                       # Average QoS priority value for accepted requests
system.mem_ctrl.avgPriority_.cpu.data::samples      5021.00                       # Average QoS priority value for accepted requests
system.mem_ctrl.priorityMinLatency       0.000000018750                       # per QoS priority minimum request to response latency (s)
system.mem_ctrl.priorityMaxLatency       0.002300328500                       # per QoS priority maximum request to response latency (s)
system.mem_ctrl.numReadWriteTurnArounds           128                       # Number of turnarounds from READ to WRITE
system.mem_ctrl.numWriteReadTurnArounds           128                       # Number of turnarounds from WRITE to READ
system.mem_ctrl.numStayReadState                28813                       # Number of times bus staying in READ state
system.mem_ctrl.numStayWriteState                2065                       # Number of times bus staying in WRITE state
system.mem_ctrl.readReqs                        12821                       # Number of read requests accepted
system.mem_ctrl.writeReqs                        2345                       # Number of write requests accepted
system.mem_ctrl.readBursts                      12821                       # Number of DRAM read bursts, including those serviced by the write queue
system.mem_ctrl.writeBursts                      2345                       # Number of DRAM write bursts, including those merged in the write queue
system.mem_ctrl.servicedByWrQ                     219                       # Number of DRAM read bursts serviced by the write queue
system.mem_ctrl.mergedWrBursts                    131                       # Number of DRAM write bursts merged with an existing one
system.mem_ctrl.neitherReadNorWriteReqs             0                       # Number of requests that are neither read nor write
system.mem_ctrl.perBankRdBursts::0               1070                       # Per bank write bursts
system.mem_ctrl.perBankRdBursts::1                860                       # Per bank write bursts
system.mem_ctrl.perBankRdBursts::2                358                       # Per bank write bursts
system.mem_ctrl.perBankRdBursts::3                588                       # Per bank write bursts
system.mem_ctrl.perBankRdBursts::4                772                       # Per bank write bursts
system.mem_ctrl.perBankRdBursts::5                807                       # Per bank write bursts
system.mem_ctrl.perBankRdBursts::6                862                       # Per bank write bursts
system.mem_ctrl.perBankRdBursts::7                515                       # Per bank write bursts
system.mem_ctrl.perBankRdBursts::8                609                       # Per bank write bursts
system.mem_ctrl.perBankRdBursts::9                416                       # Per bank write bursts
system.mem_ctrl.perBankRdBursts::10              2376                       # Per bank write bursts
system.mem_ctrl.perBankRdBursts::11               541                       # Per bank write bursts
system.mem_ctrl.perBankRdBursts::12              1114                       # Per bank write bursts
system.mem_ctrl.perBankRdBursts::13               482                       # Per bank write bursts
system.mem_ctrl.perBankRdBursts::14               542                       # Per bank write bursts
system.mem_ctrl.perBankRdBursts::15               690                       # Per bank write bursts
system.mem_ctrl.perBankWrBursts::0                174                       # Per bank write bursts
system.mem_ctrl.perBankWrBursts::1                183                       # Per bank write bursts
system.mem_ctrl.perBankWrBursts::2                 63                       # Per bank write bursts
system.mem_ctrl.perBankWrBursts::3                 97                       # Per bank write bursts
system.mem_ctrl.perBankWrBursts::4                132                       # Per bank write bursts
system.mem_ctrl.perBankWrBursts::5                220                       # Per bank write bursts
system.mem_ctrl.perBankWrBursts::6                198                       # Per bank write bursts
system.mem_ctrl.perBankWrBursts::7                 96                       # Per bank write bursts
system.mem_ctrl.perBankWrBursts::8                 97                       # Per bank write bursts
system.mem_ctrl.perBankWrBursts::9                 32                       # Per bank write bursts
system.mem_ctrl.perBankWrBursts::10               227                       # Per bank write bursts
system.mem_ctrl.perBankWrBursts::11               135                       # Per bank write bursts
system.mem_ctrl.perBankWrBursts::12               187                       # Per bank write bursts
system.mem_ctrl.perBankWrBursts::13               121                       # Per bank write bursts
system.mem_ctrl.perBankWrBursts::14                75                       # Per bank write bursts
system.mem_ctrl.perBankWrBursts::15               154                       # Per bank write bursts
system.mem_ctrl.avgRdQLen                        1.00                       # Average read queue length when enqueuing
system.mem_ctrl.avgWrQLen                       23.16                       # Average write queue length when enqueuing
system.mem_ctrl.totQLat                     139089000                       # Total ticks spent queuing
system.mem_ctrl.totBusLat                    63010000                       # Total ticks spent in databus transfers
system.mem_ctrl.totMemAccLat                375376500                       # Total ticks spent from burst creation until serviced by the DRAM
system.mem_ctrl.avgQLat                      11037.06                       # Average queueing delay per DRAM burst
system.mem_ctrl.avgBusLat                     5000.00                       # Average bus latency per DRAM burst
system.mem_ctrl.avgMemAccLat                 29787.06                       # Average memory access latency per DRAM burst
system.mem_ctrl.numRdRetry                          0                       # Number of times read queue was full causing retry
system.mem_ctrl.numWrRetry                          0                       # Number of times write queue was full causing retry
system.mem_ctrl.readRowHits                      7637                       # Number of row buffer hits during reads
system.mem_ctrl.writeRowHits                     1578                       # Number of row buffer hits during writes
system.mem_ctrl.readRowHitRate                  60.60                       # Row buffer hit rate for reads
system.mem_ctrl.writeRowHitRate                 71.27                       # Row buffer hit rate for writes
system.mem_ctrl.readPktSize::0                      0                       # Read request sizes (log2)
system.mem_ctrl.readPktSize::1                      0                       # Read request sizes (log2)
system.mem_ctrl.readPktSize::2                      0                       # Read request sizes (log2)
system.mem_ctrl.readPktSize::3                      0                       # Read request sizes (log2)
system.mem_ctrl.readPktSize::4                      0                       # Read request sizes (log2)
system.mem_ctrl.readPktSize::5                      0                       # Read request sizes (log2)
system.mem_ctrl.readPktSize::6                  12821                       # Read request sizes (log2)
system.mem_ctrl.writePktSize::0                     0                       # Write request sizes (log2)
system.mem_ctrl.writePktSize::1                     0                       # Write request sizes (log2)
system.mem_ctrl.writePktSize::2                     0                       # Write request sizes (log2)
system.mem_ctrl.writePktSize::3                     0                       # Write request sizes (log2)
system.mem_ctrl.writePktSize::4                     0                       # Write request sizes (log2)
system.mem_ctrl.writePktSize::5                     0                       # Write request sizes (log2)
system.mem_ctrl.writePktSize::6                  2345                       # Write request sizes (log2)
system.mem_ctrl.rdQLenPdf::0                    12597                       # What read queue length does an incoming req see
system.mem_ctrl.rdQLenPdf::1                        5                       # What read queue length does an incoming req see
system.mem_ctrl.rdQLenPdf::2                        0                       # What read queue length does an incoming req see
system.mem_ctrl.rdQLenPdf::3                        0                       # What read queue length does an incoming req see
system.mem_ctrl.rdQLenPdf::4                        0                       # What read queue length does an incoming req see
system.mem_ctrl.rdQLenPdf::5                        0                       # What read queue length does an incoming req see
system.mem_ctrl.rdQLenPdf::6                        0                       # What read queue length does an incoming req see
system.mem_ctrl.rdQLenPdf::7                        0                       # What read queue length does an incoming req see
system.mem_ctrl.rdQLenPdf::8                        0                       # What read queue length does an incoming req see
system.mem_ctrl.rdQLenPdf::9                        0                       # What read queue length does an incoming req see
system.mem_ctrl.rdQLenPdf::10                       0                       # What read queue length does an incoming req see
system.mem_ctrl.rdQLenPdf::11                       0                       # What read queue length does an incoming req see
system.mem_ctrl.rdQLenPdf::12                       0                       # What read queue length does an incoming req see
system.mem_ctrl.rdQLenPdf::13                       0                       # What read queue length does an incoming req see
system.mem_ctrl.rdQLenPdf::14                       0                       # What read queue length does an incoming req see
system.mem_ctrl.rdQLenPdf::15                       0                       # What read queue length does an incoming req see
system.mem_ctrl.rdQLenPdf::16                       0                       # What read queue length does an incoming req see
system.mem_ctrl.rdQLenPdf::17                       0                       # What read queue length does an incoming req see
system.mem_ctrl.rdQLenPdf::18                       0                       # What read queue length does an incoming req see
system.mem_ctrl.rdQLenPdf::19                       0                       # What read queue length does an incoming req see
system.mem_ctrl.rdQLenPdf::20                       0                       # What read queue length does an incoming req see
system.mem_ctrl.rdQLenPdf::21                       0                       # What read queue length does an incoming req see
system.mem_ctrl.rdQLenPdf::22                       0                       # What read queue length does an incoming req see
system.mem_ctrl.rdQLenPdf::23                       0                       # What read queue length does an incoming req see
system.mem_ctrl.rdQLenPdf::24                       0                       # What read queue length does an incoming req see
system.mem_ctrl.rdQLenPdf::25                       0                       # What read queue length does an incoming req see
system.mem_ctrl.rdQLenPdf::26                       0                       # What read queue length does an incoming req see
system.mem_ctrl.rdQLenPdf::27                       0                       # What read queue length does an incoming req see
system.mem_ctrl.rdQLenPdf::28                       0                       # What read queue length does an incoming req see
system.mem_ctrl.rdQLenPdf::29                       0                       # What read queue length does an incoming req see
system.mem_ctrl.rdQLenPdf::30                       0                       # What read queue length does an incoming req see
system.mem_ctrl.rdQLenPdf::31                       0                       # What read queue length does an incoming req see
system.mem_ctrl.wrQLenPdf::0                        1                       # What write queue length does an incoming req see
system.mem_ctrl.wrQLenPdf::1                        1                       # What write queue length does an incoming req see
system.mem_ctrl.wrQLenPdf::2                        1                       # What write queue length does an incoming req see
system.mem_ctrl.wrQLenPdf::3                        1                       # What write queue length does an incoming req see
system.mem_ctrl.wrQLenPdf::4                        1                       # What write queue length does an incoming req see
system.mem_ctrl.wrQLenPdf::5                        1                       # What write queue length does an incoming req see
system.mem_ctrl.wrQLenPdf::6                        1                       # What write queue length does an incoming req see
system.mem_ctrl.wrQLenPdf::7                        1                       # What write queue length does an incoming req see
system.mem_ctrl.wrQLenPdf::8                        1                       # What write queue length does an incoming req see
system.mem_ctrl.wrQLenPdf::9                        1                       # What write queue length does an incoming req see
system.mem_ctrl.wrQLenPdf::10                       1                       # What write queue length does an incoming req see
system.mem_ctrl.wrQLenPdf::11                       1                       # What write queue length does an incoming req see
system.mem_ctrl.wrQLenPdf::12                       1                       # What write queue length does an incoming req see
system.mem_ctrl.wrQLenPdf::13                       1                       # What write queue length does an incoming req see
system.mem_ctrl.wrQLenPdf::14                       1                       # What write queue length does an incoming req see
system.mem_ctrl.wrQLenPdf::15                      70                       # What write queue length does an incoming req see
system.mem_ctrl.wrQLenPdf::16                      74                       # What write queue length does an incoming req see
system.mem_ctrl.wrQLenPdf::17                     129                       # What write queue length does an incoming req see
system.mem_ctrl.wrQLenPdf::18                     130                       # What write queue length does an incoming req see
system.mem_ctrl.wrQLenPdf::19                     129                       # What write queue length does an incoming req see
system.mem_ctrl.wrQLenPdf::20                     129                       # What write queue length does an incoming req see
system.mem_ctrl.wrQLenPdf::21                     129                       # What write queue length does an incoming req see
system.mem_ctrl.wrQLenPdf::22                     129                       # What write queue length does an incoming req see
system.mem_ctrl.wrQLenPdf::23                     128                       # What write queue length does an incoming req see
system.mem_ctrl.wrQLenPdf::24                     128                       # What write queue length does an incoming req see
system.mem_ctrl.wrQLenPdf::25                     128                       # What write queue length does an incoming req see
system.mem_ctrl.wrQLenPdf::26                     128                       # What write queue length does an incoming req see
system.mem_ctrl.wrQLenPdf::27                     128                       # What write queue length does an incoming req see
system.mem_ctrl.wrQLenPdf::28                     128                       # What write queue length does an incoming req see
system.mem_ctrl.wrQLenPdf::29                     128                       # What write queue length does an incoming req see
system.mem_ctrl.wrQLenPdf::30                     128                       # What write queue length does an incoming req see
system.mem_ctrl.wrQLenPdf::31                     128                       # What write queue length does an incoming req see
system.mem_ctrl.wrQLenPdf::32                     128                       # What write queue length does an incoming req see
system.mem_ctrl.wrQLenPdf::33                       0                       # What write queue length does an incoming req see
system.mem_ctrl.wrQLenPdf::34                       0                       # What write queue length does an incoming req see
system.mem_ctrl.wrQLenPdf::35                       0                       # What write queue length does an incoming req see
system.mem_ctrl.wrQLenPdf::36                       0                       # What write queue length does an incoming req see
system.mem_ctrl.wrQLenPdf::37                       0                       # What write queue length does an incoming req see
system.mem_ctrl.wrQLenPdf::38                       0                       # What write queue length does an incoming req see
system.mem_ctrl.wrQLenPdf::39                       0                       # What write queue length does an incoming req see
system.mem_ctrl.wrQLenPdf::40                       0                       # What write queue length does an incoming req see
system.mem_ctrl.wrQLenPdf::41                       0                       # What write queue length does an incoming req see
system.mem_ctrl.wrQLenPdf::42                       0                       # What write queue length does an incoming req see
system.mem_ctrl.wrQLenPdf::43                       0                       # What write queue length does an incoming req see
system.mem_ctrl.wrQLenPdf::44                       0                       # What write queue length does an incoming req see
system.mem_ctrl.wrQLenPdf::45                       0                       # What write queue length does an incoming req see
system.mem_ctrl.wrQLenPdf::46                       0                       # What write queue length does an incoming req see
system.mem_ctrl.wrQLenPdf::47                       0                       # What write queue length does an incoming req see
system.mem_ctrl.wrQLenPdf::48                       0                       # What write queue length does an incoming req see
system.mem_ctrl.wrQLenPdf::49                       0                       # What write queue length does an incoming req see
system.mem_ctrl.wrQLenPdf::50                       0                       # What write queue length does an incoming req see
system.mem_ctrl.wrQLenPdf::51                       0                       # What write queue length does an incoming req see
system.mem_ctrl.wrQLenPdf::52                       0                       # What write queue length does an incoming req see
system.mem_ctrl.wrQLenPdf::53                       0                       # What write queue length does an incoming req see
system.mem_ctrl.wrQLenPdf::54                       0                       # What write queue length does an incoming req see
system.mem_ctrl.wrQLenPdf::55                       0                       # What write queue length does an incoming req see
system.mem_ctrl.wrQLenPdf::56                       0                       # What write queue length does an incoming req see
system.mem_ctrl.wrQLenPdf::57                       0                       # What write queue length does an incoming req see
system.mem_ctrl.wrQLenPdf::58                       0                       # What write queue length does an incoming req see
system.mem_ctrl.wrQLenPdf::59                       0                       # What write queue length does an incoming req see
system.mem_ctrl.wrQLenPdf::60                       0                       # What write queue length does an incoming req see
system.mem_ctrl.wrQLenPdf::61                       0                       # What write queue length does an incoming req see
system.mem_ctrl.wrQLenPdf::62                       0                       # What write queue length does an incoming req see
system.mem_ctrl.wrQLenPdf::63                       0                       # What write queue length does an incoming req see
system.mem_ctrl.bytesPerActivate::samples         5576                       # Bytes accessed per row activation
system.mem_ctrl.bytesPerActivate::mean     169.767575                       # Bytes accessed per row activation
system.mem_ctrl.bytesPerActivate::gmean    120.779848                       # Bytes accessed per row activation
system.mem_ctrl.bytesPerActivate::stdev    185.331359                       # Bytes accessed per row activation
system.mem_ctrl.bytesPerActivate::0-127          2680     48.06%     48.06% # Bytes accessed per row activation
system.mem_ctrl.bytesPerActivate::128-255         1815     32.55%     80.61% # Bytes accessed per row activation
system.mem_ctrl.bytesPerActivate::256-383          533      9.56%     90.17% # Bytes accessed per row activation
system.mem_ctrl.bytesPerActivate::384-511          209      3.75%     93.92% # Bytes accessed per row activation
system.mem_ctrl.bytesPerActivate::512-639          113      2.03%     95.95% # Bytes accessed per row activation
system.mem_ctrl.bytesPerActivate::640-767           55      0.99%     96.93% # Bytes accessed per row activation
system.mem_ctrl.bytesPerActivate::768-895           32      0.57%     97.51% # Bytes accessed per row activation
system.mem_ctrl.bytesPerActivate::896-1023           22      0.39%     97.90% # Bytes accessed per row activation
system.mem_ctrl.bytesPerActivate::1024-1151          117      2.10%    100.00% # Bytes accessed per row activation
system.mem_ctrl.bytesPerActivate::total          5576                       # Bytes accessed per row activation
system.mem_ctrl.rdPerTurnAround::samples          128                       # Reads before turning the bus around for writes
system.mem_ctrl.rdPerTurnAround::mean       98.171875                       # Reads before turning the bus around for writes
system.mem_ctrl.rdPerTurnAround::gmean      63.357839                       # Reads before turning the bus around for writes
system.mem_ctrl.rdPerTurnAround::stdev     182.993056                       # Reads before turning the bus around for writes
system.mem_ctrl.rdPerTurnAround::0-63              74     57.81%     57.81% # Reads before turning the bus around for writes
system.mem_ctrl.rdPerTurnAround::64-127            37     28.91%     86.72% # Reads before turning the bus around for writes
system.mem_ctrl.rdPerTurnAround::128-191           12      9.38%     96.09% # Reads before turning the bus around for writes
system.mem_ctrl.rdPerTurnAround::192-255            1      0.78%     96.88% # Reads before turning the bus around for writes
system.mem_ctrl.rdPerTurnAround::576-639            1      0.78%     97.66% # Reads before turning the bus around for writes
system.mem_ctrl.rdPerTurnAround::832-895            1      0.78%     98.44% # Reads before turning the bus around for writes
system.mem_ctrl.rdPerTurnAround::1024-1087            1      0.78%     99.22% # Reads before turning the bus around for writes
system.mem_ctrl.rdPerTurnAround::1536-1599            1      0.78%    100.00% # Reads before turning the bus around for writes
system.mem_ctrl.rdPerTurnAround::total            128                       # Reads before turning the bus around for writes
system.mem_ctrl.wrPerTurnAround::samples          128                       # Writes before turning the bus around for reads
system.mem_ctrl.wrPerTurnAround::mean       17.117188                       # Writes before turning the bus around for reads
system.mem_ctrl.wrPerTurnAround::gmean      17.088369                       # Writes before turning the bus around for reads
system.mem_ctrl.wrPerTurnAround::stdev       0.993055                       # Writes before turning the bus around for reads
system.mem_ctrl.wrPerTurnAround::16                55     42.97%     42.97% # Writes before turning the bus around for reads
system.mem_ctrl.wrPerTurnAround::17                 4      3.12%     46.09% # Writes before turning the bus around for reads
system.mem_ctrl.wrPerTurnAround::18                68     53.12%     99.22% # Writes before turning the bus around for reads
system.mem_ctrl.wrPerTurnAround::19                 1      0.78%    100.00% # Writes before turning the bus around for reads
system.mem_ctrl.wrPerTurnAround::total            128                       # Writes before turning the bus around for reads
system.mem_ctrl.bytesReadDRAM                  806528                       # Total number of bytes read from DRAM
system.mem_ctrl.bytesReadWrQ                    14016                       # Total number of bytes read from write queue
system.mem_ctrl.bytesWritten                   140224                       # Total number of bytes written to DRAM
system.mem_ctrl.bytesReadSys                   820544                       # Total read bytes from the system interface side
system.mem_ctrl.bytesWrittenSys                150080                       # Total written bytes from the system interface side
system.mem_ctrl.avgRdBW                        155.18                       # Average DRAM read bandwidth in MiByte/s
system.mem_ctrl.avgWrBW                         26.98                       # Average achieved write bandwidth in MiByte/s
system.mem_ctrl.avgRdBWSys                     157.88                       # Average system read bandwidth in MiByte/s
system.mem_ctrl.avgWrBWSys                      28.88                       # Average system write bandwidth in MiByte/s
system.mem_ctrl.peakBW                       12800.00                       # Theoretical peak bandwidth in MiByte/s
system.mem_ctrl.busUtil                          1.42                       # Data bus utilization in percentage
system.mem_ctrl.busUtilRead                      1.21                       # Data bus utilization in percentage for reads
system.mem_ctrl.busUtilWrite                     0.21                       # Data bus utilization in percentage for writes
system.mem_ctrl.totGap                     5195069000                       # Total gap between requests
system.mem_ctrl.avgGap                      342547.08                       # Average gap between requests
system.mem_ctrl.masterReadBytes::.cpu.inst       485184                       # Per-master bytes read from memory
system.mem_ctrl.masterReadBytes::.cpu.data       321344                       # Per-master bytes read from memory
system.mem_ctrl.masterWriteBytes::.writebacks       140224                       # Per-master bytes write to memory
system.mem_ctrl.masterReadRate::.cpu.inst 93353644.000339403749                       # Per-master bytes read from memory rate (Bytes/sec)
system.mem_ctrl.masterReadRate::.cpu.data 61829395.399776302278                       # Per-master bytes read from memory rate (Bytes/sec)
system.mem_ctrl.masterWriteRate::.writebacks 26980323.704622562975                       # Per-master bytes write to memory rate (Bytes/sec)
system.mem_ctrl.masterReadAccesses::.cpu.inst         7581                       # Per-master read serviced memory accesses
system.mem_ctrl.masterReadAccesses::.cpu.data         5240                       # Per-master read serviced memory accesses
system.mem_ctrl.masterWriteAccesses::.writebacks         2345                       # Per-master write serviced memory accesses
system.mem_ctrl.masterReadTotalLat::.cpu.inst    226606000                       # Per-master read total memory access latency
system.mem_ctrl.masterReadTotalLat::.cpu.data    148770500                       # Per-master read total memory access latency
system.mem_ctrl.masterWriteTotalLat::.writebacks 116930685000                       # Per-master write total memory access latency
system.mem_ctrl.masterReadAvgLat::.cpu.inst     29891.31                       # Per-master read average memory access latency
system.mem_ctrl.masterReadAvgLat::.cpu.data     28391.32                       # Per-master read average memory access latency
system.mem_ctrl.masterWriteAvgLat::.writebacks  49863831.56                       # Per-master write average memory access latency
system.mem_ctrl.pageHitRate                     62.20                       # Row buffer hit rate, read and write combined
system.mem_ctrl.rank1.actEnergy              22840860                       # Energy for activate commands per rank (pJ)
system.mem_ctrl.rank1.preEnergy              12136410                       # Energy for precharge commands per rank (pJ)
system.mem_ctrl.rank1.readEnergy             48337800                       # Energy for read commands per rank (pJ)
system.mem_ctrl.rank1.writeEnergy             5366160                       # Energy for write commands per rank (pJ)
system.mem_ctrl.rank1.refreshEnergy      409964880.000000                       # Energy for refresh commands per rank (pJ)
system.mem_ctrl.rank1.actBackEnergy        1925152200                       # Energy for active background per rank (pJ)
system.mem_ctrl.rank1.preBackEnergy         374570880                       # Energy for precharge background per rank (pJ)
system.mem_ctrl.rank1.actPowerDownEnergy            0                       # Energy for active power-down per rank (pJ)
system.mem_ctrl.rank1.prePowerDownEnergy            0                       # Energy for precharge power-down per rank (pJ)
system.mem_ctrl.rank1.selfRefreshEnergy             0                       # Energy for self refresh per rank (pJ)
system.mem_ctrl.rank1.totalEnergy          2798369190                       # Total energy per rank (pJ)
system.mem_ctrl.rank1.averagePower         538.430701                       # Core power per rank (mW)
system.mem_ctrl.rank1.totalIdleTime                 0                       # Total Idle time Per DRAM Rank
system.mem_ctrl.rank1.memoryStateTime::IDLE    952678750                       # Time in different power states
system.mem_ctrl.rank1.memoryStateTime::REF    173420000                       # Time in different power states
system.mem_ctrl.rank1.memoryStateTime::SREF            0                       # Time in different power states
system.mem_ctrl.rank1.memoryStateTime::PRE_PDN            0                       # Time in different power states
system.mem_ctrl.rank1.memoryStateTime::ACT   4071170250                       # Time in different power states
system.mem_ctrl.rank1.memoryStateTime::ACT_PDN            0                       # Time in different power states
system.mem_ctrl.rank0.actEnergy              16986060                       # Energy for activate commands per rank (pJ)
system.mem_ctrl.rank0.preEnergy               9024510                       # Energy for precharge commands per rank (pJ)
system.mem_ctrl.rank0.readEnergy             41640480                       # Energy for read commands per rank (pJ)
system.mem_ctrl.rank0.writeEnergy             6070860                       # Energy for write commands per rank (pJ)
system.mem_ctrl.rank0.refreshEnergy      409964880.000000                       # Energy for refresh commands per rank (pJ)
system.mem_ctrl.rank0.actBackEnergy        1490009640                       # Energy for active background per rank (pJ)
system.mem_ctrl.rank0.preBackEnergy         741006720                       # Energy for precharge background per rank (pJ)
system.mem_ctrl.rank0.actPowerDownEnergy            0                       # Energy for active power-down per rank (pJ)
system.mem_ctrl.rank0.prePowerDownEnergy            0                       # Energy for precharge power-down per rank (pJ)
system.mem_ctrl.rank0.selfRefreshEnergy             0                       # Energy for self refresh per rank (pJ)
system.mem_ctrl.rank0.totalEnergy          2714703150                       # Total energy per rank (pJ)
system.mem_ctrl.rank0.averagePower         522.332623                       # Core power per rank (mW)
system.mem_ctrl.rank0.totalIdleTime                 0                       # Total Idle time Per DRAM Rank
system.mem_ctrl.rank0.memoryStateTime::IDLE   1911839250                       # Time in different power states
system.mem_ctrl.rank0.memoryStateTime::REF    173420000                       # Time in different power states
system.mem_ctrl.rank0.memoryStateTime::SREF            0                       # Time in different power states
system.mem_ctrl.rank0.memoryStateTime::PRE_PDN            0                       # Time in different power states
system.mem_ctrl.rank0.memoryStateTime::ACT   3112009750                       # Time in different power states
system.mem_ctrl.rank0.memoryStateTime::ACT_PDN            0                       # Time in different power states
system.mem_ctrl.power_state.pwrStateResidencyTicks::UNDEFINED   5197269000                       # Cumulative time (in ticks) in various power states
system.cache_medium.blocked_cycles::no_mshrs            0                       # number of cycles access was blocked
system.cache_medium.blocked_cycles::no_targets            0                       # number of cycles access was blocked
system.cache_medium.blocked::no_mshrs               0                       # number of cycles access was blocked
system.cache_medium.blocked::no_targets             0                       # number of cycles access was blocked
system.cache_medium.avg_blocked_cycles::no_mshrs          nan                       # average number of cycles each access was blocked
system.cache_medium.avg_blocked_cycles::no_targets          nan                       # average number of cycles each access was blocked
system.cache_medium.replacements                    0                       # number of replacements
system.cache_medium.power_state.pwrStateResidencyTicks::UNDEFINED   5197269000                       # Cumulative time (in ticks) in various power states
system.cache_medium.tags.tagsinuse                  0                       # Cycle average of tags in use
system.cache_medium.tags.total_refs                 0                       # Total number of references to valid blocks.
system.cache_medium.tags.sampled_refs               0                       # Sample count of references to valid blocks.
system.cache_medium.tags.avg_refs                 nan                       # Average number of references to valid blocks.
system.cache_medium.tags.warmup_cycle               0                       # Cycle when the warmup percentage was hit.
system.cache_medium.tags.tag_accesses               0                       # Number of tag accesses
system.cache_medium.tags.data_accesses              0                       # Number of data accesses
system.cache_medium.tags.power_state.pwrStateResidencyTicks::UNDEFINED   5197269000                       # Cumulative time (in ticks) in various power states
system.clk_domain.clock                          1000                       # Clock period in ticks
system.clk_domain.voltage_domain.voltage            1                       # Voltage in Volts
system.dcache.demand_hits::.cpu.data           349620                       # number of demand (read+write) hits
system.dcache.demand_hits::total               349620                       # number of demand (read+write) hits
system.dcache.overall_hits::.cpu.data          350169                       # number of overall hits
system.dcache.overall_hits::total              350169                       # number of overall hits
system.dcache.demand_misses::.cpu.data          16420                       # number of demand (read+write) misses
system.dcache.demand_misses::total              16420                       # number of demand (read+write) misses
system.dcache.overall_misses::.cpu.data         16702                       # number of overall misses
system.dcache.overall_misses::total             16702                       # number of overall misses
system.dcache.demand_miss_latency::.cpu.data    583289000                       # number of demand (read+write) miss cycles
system.dcache.demand_miss_latency::total    583289000                       # number of demand (read+write) miss cycles
system.dcache.overall_miss_latency::.cpu.data    603460000                       # number of overall miss cycles
system.dcache.overall_miss_latency::total    603460000                       # number of overall miss cycles
system.dcache.demand_accesses::.cpu.data       366040                       # number of demand (read+write) accesses
system.dcache.demand_accesses::total           366040                       # number of demand (read+write) accesses
system.dcache.overall_accesses::.cpu.data       366871                       # number of overall (read+write) accesses
system.dcache.overall_accesses::total          366871                       # number of overall (read+write) accesses
system.dcache.demand_miss_rate::.cpu.data     0.044858                       # miss rate for demand accesses
system.dcache.demand_miss_rate::total        0.044858                       # miss rate for demand accesses
system.dcache.overall_miss_rate::.cpu.data     0.045526                       # miss rate for overall accesses
system.dcache.overall_miss_rate::total       0.045526                       # miss rate for overall accesses
system.dcache.demand_avg_miss_latency::.cpu.data 35523.081608                       # average overall miss latency
system.dcache.demand_avg_miss_latency::total 35523.081608                       # average overall miss latency
system.dcache.overall_avg_miss_latency::.cpu.data 36131.002275                       # average overall miss latency
system.dcache.overall_avg_miss_latency::total 36131.002275                       # average overall miss latency
system.dcache.blocked_cycles::no_mshrs              0                       # number of cycles access was blocked
system.dcache.blocked_cycles::no_targets            0                       # number of cycles access was blocked
system.dcache.blocked::no_mshrs                     0                       # number of cycles access was blocked
system.dcache.blocked::no_targets                   0                       # number of cycles access was blocked
system.dcache.avg_blocked_cycles::no_mshrs          nan                       # average number of cycles each access was blocked
system.dcache.avg_blocked_cycles::no_targets          nan                       # average number of cycles each access was blocked
system.dcache.writebacks::.writebacks            9112                       # number of writebacks
[...]
system.dcache.tags.age_task_id_blocks_1024::0           40                       # Occupied blocks per task id
system.dcache.tags.age_task_id_blocks_1024::1          192                       # Occupied blocks per task id
system.dcache.tags.age_task_id_blocks_1024::2           24                       # Occupied blocks per task id
system.dcache.tags.occ_task_id_percent::1024            1                       # Percentage of cache occupancy per task id
system.dcache.tags.tag_accesses               1776366                       # Number of tag accesses
system.dcache.tags.data_accesses              1776366                       # Number of data accesses
system.dcache.tags.power_state.pwrStateResidencyTicks::UNDEFINED  22925849000                       # Cumulative time (in ticks) in various power states
system.cache_large.blocked_cycles::no_mshrs            0                       # number of cycles access was blocked
system.cache_large.blocked_cycles::no_targets            0                       # number of cycles access was blocked
system.cache_large.blocked::no_mshrs                0                       # number of cycles access was blocked
system.cache_large.blocked::no_targets              0                       # number of cycles access was blocked
system.cache_large.avg_blocked_cycles::no_mshrs          nan                       # average number of cycles each access was blocked
system.cache_large.avg_blocked_cycles::no_targets          nan                       # average number of cycles each access was blocked
system.cache_large.replacements                     0                       # number of replacements
system.cache_large.power_state.pwrStateResidencyTicks::UNDEFINED  22925849000                       # Cumulative time (in ticks) in various power states
system.cache_large.tags.tagsinuse                   0                       # Cycle average of tags in use
system.cache_large.tags.total_refs                  0                       # Total number of references to valid blocks.
system.cache_large.tags.sampled_refs                0                       # Sample count of references to valid blocks.
system.cache_large.tags.avg_refs                  nan                       # Average number of references to valid blocks.
system.cache_large.tags.warmup_cycle                0                       # Cycle when the warmup percentage was hit.
system.cache_large.tags.tag_accesses                0                       # Number of tag accesses
system.cache_large.tags.data_accesses               0                       # Number of data accesses
system.cache_large.tags.power_state.pwrStateResidencyTicks::UNDEFINED  22925849000                       # Cumulative time (in ticks) in various power states
system.l2cache.demand_hits::.cpu.inst           46205                       # number of demand (read+write) hits
system.l2cache.demand_hits::.cpu.data           29996                       # number of demand (read+write) hits
system.l2cache.demand_hits::total               76201                       # number of demand (read+write) hits
system.l2cache.overall_hits::.cpu.inst          46205                       # number of overall hits
system.l2cache.overall_hits::.cpu.data          29996                       # number of overall hits
system.l2cache.overall_hits::total              76201                       # number of overall hits
system.l2cache.demand_misses::.cpu.inst        139409                       # number of demand (read+write) misses
system.l2cache.demand_misses::.cpu.data         47487                       # number of demand (read+write) misses
system.l2cache.demand_misses::total            186896                       # number of demand (read+write) misses
system.l2cache.overall_misses::.cpu.inst       139409                       # number of overall misses
system.l2cache.overall_misses::.cpu.data        47487                       # number of overall misses
system.l2cache.overall_misses::total           186896                       # number of overall misses
system.l2cache.demand_miss_latency::.cpu.inst   3784937000                       # number of demand (read+write) miss cycles
system.l2cache.demand_miss_latency::.cpu.data   1701736000                       # number of demand (read+write) miss cycles
system.l2cache.demand_miss_latency::total   5486673000                       # number of demand (read+write) miss cycles
system.l2cache.overall_miss_latency::.cpu.inst   3784937000                       # number of overall miss cycles
system.l2cache.overall_miss_latency::.cpu.data   1701736000                       # number of overall miss cycles
system.l2cache.overall_miss_latency::total   5486673000                       # number of overall miss cycles
system.l2cache.demand_accesses::.cpu.inst       185614                       # number of demand (read+write) accesses
system.l2cache.demand_accesses::.cpu.data        77483                       # number of demand (read+write) accesses
system.l2cache.demand_accesses::total          263097                       # number of demand (read+write) accesses
system.l2cache.overall_accesses::.cpu.inst       185614                       # number of overall (read+write) accesses
system.l2cache.overall_accesses::.cpu.data        77483                       # number of overall (read+write) accesses
system.l2cache.overall_accesses::total         263097                       # number of overall (read+write) accesses
system.l2cache.demand_miss_rate::.cpu.inst     0.751069                       # miss rate for demand accesses
system.l2cache.demand_miss_rate::.cpu.data     0.612870                       # miss rate for demand accesses
system.l2cache.demand_miss_rate::total       0.710369                       # miss rate for demand accesses
system.l2cache.overall_miss_rate::.cpu.inst     0.751069                       # miss rate for overall accesses
system.l2cache.overall_miss_rate::.cpu.data     0.612870                       # miss rate for overall accesses
system.l2cache.overall_miss_rate::total      0.710369                       # miss rate for overall accesses
system.l2cache.demand_avg_miss_latency::.cpu.inst 27149.875546                       # average overall miss latency
system.l2cache.demand_avg_miss_latency::.cpu.data 35835.828753                       # average overall miss latency
system.l2cache.demand_avg_miss_latency::total 29356.824116                       # average overall miss latency
system.l2cache.overall_avg_miss_latency::.cpu.inst 27149.875546                       # average overall miss latency
system.l2cache.overall_avg_miss_latency::.cpu.data 35835.828753                       # average overall miss latency
system.l2cache.overall_avg_miss_latency::total 29356.824116                       # average overall miss latency
system.l2cache.blocked_cycles::no_mshrs             0                       # number of cycles access was blocked
system.l2cache.blocked_cycles::no_targets            0                       # number of cycles access was blocked
system.l2cache.blocked::no_mshrs                    0                       # number of cycles access was blocked
system.l2cache.blocked::no_targets                  0                       # number of cycles access was blocked
system.l2cache.avg_blocked_cycles::no_mshrs          nan                       # average number of cycles each access was blocked
system.l2cache.avg_blocked_cycles::no_targets          nan                       # average number of cycles each access was blocked
system.l2cache.writebacks::.writebacks          32033                       # number of writebacks
system.l2cache.writebacks::total                32033                       # number of writebacks
system.l2cache.demand_mshr_misses::.cpu.inst       139409                       # number of demand (read+write) MSHR misses
system.l2cache.demand_mshr_misses::.cpu.data        47487                       # number of demand (read+write) MSHR misses
system.l2cache.demand_mshr_misses::total       186896                       # number of demand (read+write) MSHR misses
system.l2cache.overall_mshr_misses::.cpu.inst       139409                       # number of overall MSHR misses
system.l2cache.overall_mshr_misses::.cpu.data        47487                       # number of overall MSHR misses
system.l2cache.overall_mshr_misses::total       186896                       # number of overall MSHR misses
system.l2cache.demand_mshr_miss_latency::.cpu.inst   3506119000                       # number of demand (read+write) MSHR miss cycles
system.l2cache.demand_mshr_miss_latency::.cpu.data   1606762000                       # number of demand (read+write) MSHR miss cycles
system.l2cache.demand_mshr_miss_latency::total   5112881000                       # number of demand (read+write) MSHR miss cycles
system.l2cache.overall_mshr_miss_latency::.cpu.inst   3506119000                       # number of overall MSHR miss cycles
system.l2cache.overall_mshr_miss_latency::.cpu.data   1606762000                       # number of overall MSHR miss cycles
system.l2cache.overall_mshr_miss_latency::total   5112881000                       # number of overall MSHR miss cycles
system.l2cache.demand_mshr_miss_rate::.cpu.inst     0.751069                       # mshr miss rate for demand accesses
system.l2cache.demand_mshr_miss_rate::.cpu.data     0.612870                       # mshr miss rate for demand accesses
system.l2cache.demand_mshr_miss_rate::total     0.710369                       # mshr miss rate for demand accesses
system.l2cache.overall_mshr_miss_rate::.cpu.inst     0.751069                       # mshr miss rate for overall accesses
system.l2cache.overall_mshr_miss_rate::.cpu.data     0.612870                       # mshr miss rate for overall accesses
system.l2cache.overall_mshr_miss_rate::total     0.710369                       # mshr miss rate for overall accesses
system.l2cache.demand_avg_mshr_miss_latency::.cpu.inst 25149.875546                       # average overall mshr miss latency
system.l2cache.demand_avg_mshr_miss_latency::.cpu.data 33835.828753                       # average overall mshr miss latency
system.l2cache.demand_avg_mshr_miss_latency::total 27356.824116                       # average overall mshr miss latency
system.l2cache.overall_avg_mshr_miss_latency::.cpu.inst 25149.875546                       # average overall mshr miss latency
system.l2cache.overall_avg_mshr_miss_latency::.cpu.data 33835.828753                       # average overall mshr miss latency
system.l2cache.overall_avg_mshr_miss_latency::total 27356.824116                       # average overall mshr miss latency
system.l2cache.replacements                    212089                       # number of replacements
system.l2cache.ReadReq_hits::.cpu.inst          46205                       # number of ReadReq hits
system.l2cache.ReadReq_hits::.cpu.data          29996                       # number of ReadReq hits
system.l2cache.ReadReq_hits::total              76201                       # number of ReadReq hits
system.l2cache.ReadReq_misses::.cpu.inst       139409                       # number of ReadReq misses
system.l2cache.ReadReq_misses::.cpu.data        47487                       # number of ReadReq misses
system.l2cache.ReadReq_misses::total           186896                       # number of ReadReq misses
system.l2cache.ReadReq_miss_latency::.cpu.inst   3784937000                       # number of ReadReq miss cycles
system.l2cache.ReadReq_miss_latency::.cpu.data   1701736000                       # number of ReadReq miss cycles
system.l2cache.ReadReq_miss_latency::total   5486673000                       # number of ReadReq miss cycles
system.l2cache.ReadReq_accesses::.cpu.inst       185614                       # number of ReadReq accesses(hits+misses)
system.l2cache.ReadReq_accesses::.cpu.data        77483                       # number of ReadReq accesses(hits+misses)
system.l2cache.ReadReq_accesses::total         263097                       # number of ReadReq accesses(hits+misses)
system.l2cache.ReadReq_miss_rate::.cpu.inst     0.751069                       # miss rate for ReadReq accesses
system.l2cache.ReadReq_miss_rate::.cpu.data     0.612870                       # miss rate for ReadReq accesses
system.l2cache.ReadReq_miss_rate::total      0.710369                       # miss rate for ReadReq accesses
system.l2cache.ReadReq_avg_miss_latency::.cpu.inst 27149.875546                       # average ReadReq miss latency
system.l2cache.ReadReq_avg_miss_latency::.cpu.data 35835.828753                       # average ReadReq miss latency
system.l2cache.ReadReq_avg_miss_latency::total 29356.824116                       # average ReadReq miss latency
system.l2cache.ReadReq_mshr_misses::.cpu.inst       139409                       # number of ReadReq MSHR misses
system.l2cache.ReadReq_mshr_misses::.cpu.data        47487                       # number of ReadReq MSHR misses
system.l2cache.ReadReq_mshr_misses::total       186896                       # number of ReadReq MSHR misses
system.l2cache.ReadReq_mshr_miss_latency::.cpu.inst   3506119000                       # number of ReadReq MSHR miss cycles
system.l2cache.ReadReq_mshr_miss_latency::.cpu.data   1606762000                       # number of ReadReq MSHR miss cycles
system.l2cache.ReadReq_mshr_miss_latency::total   5112881000                       # number of ReadReq MSHR miss cycles
system.l2cache.ReadReq_mshr_miss_rate::.cpu.inst     0.751069                       # mshr miss rate for ReadReq accesses
system.l2cache.ReadReq_mshr_miss_rate::.cpu.data     0.612870                       # mshr miss rate for ReadReq accesses
system.l2cache.ReadReq_mshr_miss_rate::total     0.710369                       # mshr miss rate for ReadReq accesses
system.l2cache.ReadReq_avg_mshr_miss_latency::.cpu.inst 25149.875546                       # average ReadReq mshr miss latency
system.l2cache.ReadReq_avg_mshr_miss_latency::.cpu.data 33835.828753                       # average ReadReq mshr miss latency
system.l2cache.ReadReq_avg_mshr_miss_latency::total 27356.824116                       # average ReadReq mshr miss latency
system.l2cache.WritebackDirty_hits::.writebacks        38702                       # number of WritebackDirty hits
system.l2cache.WritebackDirty_hits::total        38702                       # number of WritebackDirty hits
system.l2cache.WritebackDirty_accesses::.writebacks        38702                       # number of WritebackDirty accesses(hits+misses)
system.l2cache.WritebackDirty_accesses::total        38702                       # number of WritebackDirty accesses(hits+misses)
system.l2cache.power_state.pwrStateResidencyTicks::UNDEFINED  22925849000                       # Cumulative time (in ticks) in various power states
system.l2cache.tags.tagsinuse              510.830816                       # Cycle average of tags in use
system.l2cache.tags.total_refs                 301799                       # Total number of references to valid blocks.
system.l2cache.tags.sampled_refs               212601                       # Sample count of references to valid blocks.
system.l2cache.tags.avg_refs                 1.419556                       # Average number of references to valid blocks.
system.l2cache.tags.warmup_cycle                78000                       # Cycle when the warmup percentage was hit.
system.l2cache.tags.occ_blocks::.writebacks    72.933487                       # Average occupied blocks per requestor
system.l2cache.tags.occ_blocks::.cpu.inst   291.204612                       # Average occupied blocks per requestor
system.l2cache.tags.occ_blocks::.cpu.data   146.692717                       # Average occupied blocks per requestor
system.l2cache.tags.occ_percent::.writebacks     0.142448                       # Average percentage of cache occupancy
system.l2cache.tags.occ_percent::.cpu.inst     0.568759                       # Average percentage of cache occupancy
system.l2cache.tags.occ_percent::.cpu.data     0.286509                       # Average percentage of cache occupancy
system.l2cache.tags.occ_percent::total       0.997716                       # Average percentage of cache occupancy
system.l2cache.tags.occ_task_id_blocks::1024          512                       # Occupied blocks per task id
system.l2cache.tags.age_task_id_blocks_1024::0           81                       # Occupied blocks per task id
system.l2cache.tags.age_task_id_blocks_1024::1          270                       # Occupied blocks per task id
system.l2cache.tags.age_task_id_blocks_1024::2          161                       # Occupied blocks per task id
system.l2cache.tags.occ_task_id_percent::1024            1                       # Percentage of cache occupancy per task id
system.l2cache.tags.tag_accesses               514400                       # Number of tag accesses
system.l2cache.tags.data_accesses              514400                       # Number of data accesses
system.l2cache.tags.power_state.pwrStateResidencyTicks::UNDEFINED  22925849000                       # Cumulative time (in ticks) in various power states
system.l2bar.trans_dist::ReadReq               263097                       # Transaction distribution
system.l2bar.trans_dist::ReadResp              263097                       # Transaction distribution
system.l2bar.trans_dist::WritebackDirty         38702                       # Transaction distribution
system.l2bar.pkt_count_system.dcache.mem_side::system.l2cache.cpu_side       193668                       # Packet count per connected master and slave (bytes)
system.l2bar.pkt_count_system.icache.mem_side::system.l2cache.cpu_side       371228                       # Packet count per connected master and slave (bytes)
system.l2bar.pkt_count::total                  564896                       # Packet count per connected master and slave (bytes)
system.l2bar.pkt_size_system.dcache.mem_side::system.l2cache.cpu_side      7435840                       # Cumulative packet size per connected master and slave (bytes)
system.l2bar.pkt_size_system.icache.mem_side::system.l2cache.cpu_side     11879296                       # Cumulative packet size per connected master and slave (bytes)
system.l2bar.pkt_size::total                 19315136                       # Cumulative packet size per connected master and slave (bytes)
system.l2bar.respLayer1.occupancy           928070000                       # Layer occupancy (ticks)
system.l2bar.respLayer1.utilization               4.0                       # Layer utilization (%)
system.l2bar.reqLayer0.occupancy            456607000                       # Layer occupancy (ticks)
system.l2bar.reqLayer0.utilization                2.0                       # Layer utilization (%)
system.l2bar.respLayer0.occupancy           387415000                       # Layer occupancy (ticks)
system.l2bar.respLayer0.utilization               1.7                       # Layer utilization (%)
system.l2bar.power_state.pwrStateResidencyTicks::UNDEFINED  22925849000                       # Cumulative time (in ticks) in various power states
system.cpu.dtb.walker.power_state.pwrStateResidencyTicks::UNDEFINED  22925849000                       # Cumulative time (in ticks) in various power states
system.cpu.interrupts.clk_domain.clock          16000                       # Clock period in ticks
system.cpu.itb.walker.power_state.pwrStateResidencyTicks::UNDEFINED  22925849000                       # Cumulative time (in ticks) in various power states
system.cpu.power_state.numTransitions               1                       # Number of power state transitions
system.cpu.power_state.pwrStateResidencyTicks::ON  22925849000                       # Cumulative time (in ticks) in various power states

---------- End Simulation Statistics   ----------
