
---------- Begin Simulation Statistics ----------
final_tick                                12509745000                       # Number of ticks from beginning of simulation (restored from checkpoints and never reset)
host_inst_rate                                  63022                       # Simulator instruction rate (inst/s)
host_mem_usage                               34306068                       # Number of bytes of host memory used
host_op_rate                                    75011                       # Simulator op (including micro ops) rate (op/s)
host_seconds                                    15.87                       # Real time elapsed on the host
host_tick_rate                              788368068                       # Simulator tick rate (ticks/s)
sim_freq                                 1000000000000                       # Frequency of simulated ticks
sim_insts                                     1000002                       # Number of instructions simulated
sim_ops                                       1190256                       # Number of ops (including micro ops) simulated
sim_seconds                                  0.012510                       # Number of seconds simulated
sim_ticks                                 12509745000                       # Number of ticks simulated
system.cpu.Branches                             47570                       # Number of branches fetched
system.cpu.committedInsts                     1000002                       # Number of instructions committed
system.cpu.committedOps                       1190256                       # Number of ops (including micro ops) committed
system.cpu.dtb.rdAccesses                        4519                       # TLB accesses on read requests
system.cpu.dtb.rdMisses                            16                       # TLB misses on read requests
system.cpu.dtb.wrAccesses                      857345                       # TLB accesses on write requests
system.cpu.dtb.wrMisses                          3345                       # TLB misses on write requests
system.cpu.idle_fraction                            0                       # Percentage of idle cycles
system.cpu.itb.rdAccesses                           0                       # TLB accesses on read requests
system.cpu.itb.rdMisses                             0                       # TLB misses on read requests
system.cpu.itb.wrAccesses                     1563402                       # TLB accesses on write requests
system.cpu.itb.wrMisses                            47                       # TLB misses on write requests
system.cpu.not_idle_fraction                        1                       # Percentage of non-idle cycles
system.cpu.numCycles                         12509734                       # number of cpu cycles simulated
system.cpu.numWorkItemsCompleted                    0                       # number of work items this cpu completed
system.cpu.numWorkItemsStarted                      0                       # number of work items this cpu started
system.cpu.num_busy_cycles                   12509734                       # Number of busy cycles
system.cpu.num_cc_register_reads               237009                       # number of times the CC registers were read
system.cpu.num_cc_register_writes              182306                       # number of times the CC registers were written
system.cpu.num_conditional_control_insts        46479                       # number of instructions that are conditional controls
system.cpu.num_fp_alu_accesses                 810918                       # Number of float alu accesses
system.cpu.num_fp_insts                        810918                       # number of float instructions
system.cpu.num_fp_register_reads               811430                       # number of times the floating registers were read
system.cpu.num_fp_register_writes                 609                       # number of times the floating registers were written
system.cpu.num_func_calls                         743                       # number of times a function call or return occured
system.cpu.num_idle_cycles                          0                       # Number of idle cycles
system.cpu.num_int_alu_accesses               1191161                       # Number of integer alu accesses
system.cpu.num_int_insts                      1191161                       # number of integer instructions
system.cpu.num_int_register_reads             3022446                       # number of times the integer registers were read
system.cpu.num_int_register_writes             286434                       # number of times the integer registers were written
system.cpu.num_load_insts                        4504                       # Number of load instructions
system.cpu.num_mem_refs                        861848                       # number of memory refs
system.cpu.num_store_insts                     857344                       # Number of store instructions
system.cpu.num_vec_alu_accesses                     0                       # Number of vector alu accesses
system.cpu.num_vec_insts                            0                       # number of vector instructions
system.cpu.num_vec_register_reads                   0                       # number of times the vector registers were read
system.cpu.num_vec_register_writes                  0                       # number of times the vector registers were written
system.cpu.op_class::No_OpClass                   186      0.02%      0.02% # Class of executed instruction
system.cpu.op_class::IntAlu                    329241     27.62%     27.64% # Class of executed instruction
system.cpu.op_class::IntMult                       29      0.00%     27.64% # Class of executed instruction
system.cpu.op_class::IntDiv                        70      0.01%     27.65% # Class of executed instruction
system.cpu.op_class::FloatAdd                      19      0.00%     27.65% # Class of executed instruction
system.cpu.op_class::FloatCmp                       0      0.00%     27.65% # Class of executed instruction
system.cpu.op_class::FloatCvt                       0      0.00%     27.65% # Class of executed instruction
system.cpu.op_class::FloatMult                      0      0.00%     27.65% # Class of executed instruction
system.cpu.op_class::FloatMultAcc                   0      0.00%     27.65% # Class of executed instruction
system.cpu.op_class::FloatDiv                       0      0.00%     27.65% # Class of executed instruction
system.cpu.op_class::FloatMisc                      0      0.00%     27.65% # Class of executed instruction
system.cpu.op_class::FloatSqrt                      0      0.00%     27.65% # Class of executed instruction
system.cpu.op_class::SimdAdd                        0      0.00%     27.65% # Class of executed instruction
system.cpu.op_class::SimdAddAcc                     0      0.00%     27.65% # Class of executed instruction
system.cpu.op_class::SimdAlu                      152      0.01%     27.66% # Class of executed instruction
system.cpu.op_class::SimdCmp                        0      0.00%     27.66% # Class of executed instruction
system.cpu.op_class::SimdCvt                      158      0.01%     27.67% # Class of executed instruction
system.cpu.op_class::SimdMisc                     221      0.02%     27.69% # Class of executed instruction
system.cpu.op_class::SimdMult                       0      0.00%     27.69% # Class of executed instruction
system.cpu.op_class::SimdMultAcc                    0      0.00%     27.69% # Class of executed instruction
system.cpu.op_class::SimdShift                      0      0.00%     27.69% # Class of executed instruction
system.cpu.op_class::SimdShiftAcc                   0      0.00%     27.69% # Class of executed instruction
system.cpu.op_class::SimdDiv                        0      0.00%     27.69% # Class of executed instruction
system.cpu.op_class::SimdSqrt                       0      0.00%     27.69% # Class of executed instruction
system.cpu.op_class::SimdFloatAdd                   0      0.00%     27.69% # Class of executed instruction
system.cpu.op_class::SimdFloatAlu                   0      0.00%     27.69% # Class of executed instruction
system.cpu.op_class::SimdFloatCmp                   0      0.00%     27.69% # Class of executed instruction
system.cpu.op_class::SimdFloatCvt                   2      0.00%     27.69% # Class of executed instruction
system.cpu.op_class::SimdFloatDiv                   0      0.00%     27.69% # Class of executed instruction
system.cpu.op_class::SimdFloatMisc                  0      0.00%     27.69% # Class of executed instruction
system.cpu.op_class::SimdFloatMult                  0      0.00%     27.69% # Class of executed instruction
system.cpu.op_class::SimdFloatMultAcc               0      0.00%     27.69% # Class of executed instruction
system.cpu.op_class::SimdFloatSqrt                  0      0.00%     27.69% # Class of executed instruction
system.cpu.op_class::SimdReduceAdd                  0      0.00%     27.69% # Class of executed instruction
system.cpu.op_class::SimdReduceAlu                  0      0.00%     27.69% # Class of executed instruction
system.cpu.op_class::SimdReduceCmp                  0      0.00%     27.69% # Class of executed instruction
system.cpu.op_class::SimdFloatReduceAdd             0      0.00%     27.69% # Class of executed instruction
system.cpu.op_class::SimdFloatReduceCmp             0      0.00%     27.69% # Class of executed instruction
system.cpu.op_class::SimdAes                        0      0.00%     27.69% # Class of executed instruction
system.cpu.op_class::SimdAesMix                     0      0.00%     27.69% # Class of executed instruction
system.cpu.op_class::SimdSha1Hash                   0      0.00%     27.69% # Class of executed instruction
system.cpu.op_class::SimdSha1Hash2                  0      0.00%     27.69% # Class of executed instruction
system.cpu.op_class::SimdSha256Hash                 0      0.00%     27.69% # Class of executed instruction
system.cpu.op_class::SimdSha256Hash2                0      0.00%     27.69% # Class of executed instruction
system.cpu.op_class::SimdShaSigma2                  0      0.00%     27.69% # Class of executed instruction
system.cpu.op_class::SimdShaSigma3                  0      0.00%     27.69% # Class of executed instruction
system.cpu.op_class::SimdPredAlu                    0      0.00%     27.69% # Class of executed instruction
system.cpu.op_class::MemRead                     4402      0.37%     28.06% # Class of executed instruction
system.cpu.op_class::MemWrite                   47146      3.96%     32.02% # Class of executed instruction
system.cpu.op_class::FloatMemRead                 102      0.01%     32.03% # Class of executed instruction
system.cpu.op_class::FloatMemWrite             810198     67.97%    100.00% # Class of executed instruction
system.cpu.op_class::IprAccess                      0      0.00%    100.00% # Class of executed instruction
system.cpu.op_class::InstPrefetch                   0      0.00%    100.00% # Class of executed instruction
system.cpu.op_class::total                    1191926                       # Class of executed instruction
system.cpu.workload.numSyscalls                    65                       # Number of system calls
system.dynamic_cache.flushTicks                     0                       # Ticks taken to flush
system.dynamic_cache.numFlushes                     0                       # Number of Flushes Taken
system.cache_small.demand_hits::.cpu.inst           73                       # number of demand (read+write) hits
system.cache_small.demand_hits::.cpu.data           12                       # number of demand (read+write) hits
system.cache_small.demand_hits::total              85                       # number of demand (read+write) hits
system.cache_small.overall_hits::.cpu.inst           73                       # number of overall hits
system.cache_small.overall_hits::.cpu.data           12                       # number of overall hits
system.cache_small.overall_hits::total             85                       # number of overall hits
system.cache_small.demand_misses::.cpu.inst          504                       # number of demand (read+write) misses
system.cache_small.demand_misses::.cpu.data       106794                       # number of demand (read+write) misses
system.cache_small.demand_misses::total        107298                       # number of demand (read+write) misses
system.cache_small.overall_misses::.cpu.inst          504                       # number of overall misses
system.cache_small.overall_misses::.cpu.data       106794                       # number of overall misses
system.cache_small.overall_misses::total       107298                       # number of overall misses
system.cache_small.demand_miss_latency::.cpu.inst     29504000                       # number of demand (read+write) miss cycles
system.cache_small.demand_miss_latency::.cpu.data   6018921000                       # number of demand (read+write) miss cycles
system.cache_small.demand_miss_latency::total   6048425000                       # number of demand (read+write) miss cycles
system.cache_small.overall_miss_latency::.cpu.inst     29504000                       # number of overall miss cycles
system.cache_small.overall_miss_latency::.cpu.data   6018921000                       # number of overall miss cycles
system.cache_small.overall_miss_latency::total   6048425000                       # number of overall miss cycles
system.cache_small.demand_accesses::.cpu.inst          577                       # number of demand (read+write) accesses
system.cache_small.demand_accesses::.cpu.data       106806                       # number of demand (read+write) accesses
system.cache_small.demand_accesses::total       107383                       # number of demand (read+write) accesses
system.cache_small.overall_accesses::.cpu.inst          577                       # number of overall (read+write) accesses
system.cache_small.overall_accesses::.cpu.data       106806                       # number of overall (read+write) accesses
system.cache_small.overall_accesses::total       107383                       # number of overall (read+write) accesses
system.cache_small.demand_miss_rate::.cpu.inst     0.873484                       # miss rate for demand accesses
system.cache_small.demand_miss_rate::.cpu.data     0.999888                       # miss rate for demand accesses
system.cache_small.demand_miss_rate::total     0.999208                       # miss rate for demand accesses
system.cache_small.overall_miss_rate::.cpu.inst     0.873484                       # miss rate for overall accesses
system.cache_small.overall_miss_rate::.cpu.data     0.999888                       # miss rate for overall accesses
system.cache_small.overall_miss_rate::total     0.999208                       # miss rate for overall accesses
system.cache_small.demand_avg_miss_latency::.cpu.inst 58539.682540                       # average overall miss latency
system.cache_small.demand_avg_miss_latency::.cpu.data 56360.104500                       # average overall miss latency
system.cache_small.demand_avg_miss_latency::total 56370.342411                       # average overall miss latency
system.cache_small.overall_avg_miss_latency::.cpu.inst 58539.682540                       # average overall miss latency
system.cache_small.overall_avg_miss_latency::.cpu.data 56360.104500                       # average overall miss latency
system.cache_small.overall_avg_miss_latency::total 56370.342411                       # average overall miss latency
system.cache_small.blocked_cycles::no_mshrs            0                       # number of cycles access was blocked
system.cache_small.blocked_cycles::no_targets            0                       # number of cycles access was blocked
system.cache_small.blocked::no_mshrs                0                       # number of cycles access was blocked
system.cache_small.blocked::no_targets              0                       # number of cycles access was blocked
system.cache_small.avg_blocked_cycles::no_mshrs          nan                       # average number of cycles each access was blocked
system.cache_small.avg_blocked_cycles::no_targets          nan                       # average number of cycles each access was blocked
system.cache_small.demand_mshr_misses::.cpu.inst          504                       # number of demand (read+write) MSHR misses
system.cache_small.demand_mshr_misses::.cpu.data       106794                       # number of demand (read+write) MSHR misses
system.cache_small.demand_mshr_misses::total       107298                       # number of demand (read+write) MSHR misses
system.cache_small.overall_mshr_misses::.cpu.inst          504                       # number of overall MSHR misses
system.cache_small.overall_mshr_misses::.cpu.data       106794                       # number of overall MSHR misses
system.cache_small.overall_mshr_misses::total       107298                       # number of overall MSHR misses
system.cache_small.demand_mshr_miss_latency::.cpu.inst     28496000                       # number of demand (read+write) MSHR miss cycles
system.cache_small.demand_mshr_miss_latency::.cpu.data   5805333000                       # number of demand (read+write) MSHR miss cycles
system.cache_small.demand_mshr_miss_latency::total   5833829000                       # number of demand (read+write) MSHR miss cycles
system.cache_small.overall_mshr_miss_latency::.cpu.inst     28496000                       # number of overall MSHR miss cycles
system.cache_small.overall_mshr_miss_latency::.cpu.data   5805333000                       # number of overall MSHR miss cycles
system.cache_small.overall_mshr_miss_latency::total   5833829000                       # number of overall MSHR miss cycles
system.cache_small.demand_mshr_miss_rate::.cpu.inst     0.873484                       # mshr miss rate for demand accesses
system.cache_small.demand_mshr_miss_rate::.cpu.data     0.999888                       # mshr miss rate for demand accesses
system.cache_small.demand_mshr_miss_rate::total     0.999208                       # mshr miss rate for demand accesses
system.cache_small.overall_mshr_miss_rate::.cpu.inst     0.873484                       # mshr miss rate for overall accesses
system.cache_small.overall_mshr_miss_rate::.cpu.data     0.999888                       # mshr miss rate for overall accesses
system.cache_small.overall_mshr_miss_rate::total     0.999208                       # mshr miss rate for overall accesses
system.cache_small.demand_avg_mshr_miss_latency::.cpu.inst 56539.682540                       # average overall mshr miss latency
system.cache_small.demand_avg_mshr_miss_latency::.cpu.data 54360.104500                       # average overall mshr miss latency
system.cache_small.demand_avg_mshr_miss_latency::total 54370.342411                       # average overall mshr miss latency
system.cache_small.overall_avg_mshr_miss_latency::.cpu.inst 56539.682540                       # average overall mshr miss latency
system.cache_small.overall_avg_mshr_miss_latency::.cpu.data 54360.104500                       # average overall mshr miss latency
system.cache_small.overall_avg_mshr_miss_latency::total 54370.342411                       # average overall mshr miss latency
system.cache_small.replacements                     0                       # number of replacements
system.cache_small.ReadReq_hits::.cpu.inst           73                       # number of ReadReq hits
system.cache_small.ReadReq_hits::.cpu.data           12                       # number of ReadReq hits
system.cache_small.ReadReq_hits::total             85                       # number of ReadReq hits
system.cache_small.ReadReq_misses::.cpu.inst          504                       # number of ReadReq misses
system.cache_small.ReadReq_misses::.cpu.data       106794                       # number of ReadReq misses
system.cache_small.ReadReq_misses::total       107298                       # number of ReadReq misses
system.cache_small.ReadReq_miss_latency::.cpu.inst     29504000                       # number of ReadReq miss cycles
system.cache_small.ReadReq_miss_latency::.cpu.data   6018921000                       # number of ReadReq miss cycles
system.cache_small.ReadReq_miss_latency::total   6048425000                       # number of ReadReq miss cycles
system.cache_small.ReadReq_accesses::.cpu.inst          577                       # number of ReadReq accesses(hits+misses)
system.cache_small.ReadReq_accesses::.cpu.data       106806                       # number of ReadReq accesses(hits+misses)
system.cache_small.ReadReq_accesses::total       107383                       # number of ReadReq accesses(hits+misses)
system.cache_small.ReadReq_miss_rate::.cpu.inst     0.873484                       # miss rate for ReadReq accesses
system.cache_small.ReadReq_miss_rate::.cpu.data     0.999888                       # miss rate for ReadReq accesses
system.cache_small.ReadReq_miss_rate::total     0.999208                       # miss rate for ReadReq accesses
system.cache_small.ReadReq_avg_miss_latency::.cpu.inst 58539.682540                       # average ReadReq miss latency
system.cache_small.ReadReq_avg_miss_latency::.cpu.data 56360.104500                       # average ReadReq miss latency
system.cache_small.ReadReq_avg_miss_latency::total 56370.342411                       # average ReadReq miss latency
system.cache_small.ReadReq_mshr_misses::.cpu.inst          504                       # number of ReadReq MSHR misses
system.cache_small.ReadReq_mshr_misses::.cpu.data       106794                       # number of ReadReq MSHR misses
system.cache_small.ReadReq_mshr_misses::total       107298                       # number of ReadReq MSHR misses
system.cache_small.ReadReq_mshr_miss_latency::.cpu.inst     28496000                       # number of ReadReq MSHR miss cycles
system.cache_small.ReadReq_mshr_miss_latency::.cpu.data   5805333000                       # number of ReadReq MSHR miss cycles
system.cache_small.ReadReq_mshr_miss_latency::total   5833829000                       # number of ReadReq MSHR miss cycles
system.cache_small.ReadReq_mshr_miss_rate::.cpu.inst     0.873484                       # mshr miss rate for ReadReq accesses
system.cache_small.ReadReq_mshr_miss_rate::.cpu.data     0.999888                       # mshr miss rate for ReadReq accesses
system.cache_small.ReadReq_mshr_miss_rate::total     0.999208                       # mshr miss rate for ReadReq accesses
system.cache_small.ReadReq_avg_mshr_miss_latency::.cpu.inst 56539.682540                       # average ReadReq mshr miss latency
system.cache_small.ReadReq_avg_mshr_miss_latency::.cpu.data 54360.104500                       # average ReadReq mshr miss latency
system.cache_small.ReadReq_avg_mshr_miss_latency::total 54370.342411                       # average ReadReq mshr miss latency
system.cache_small.WritebackDirty_hits::.writebacks       106234                       # number of WritebackDirty hits
system.cache_small.WritebackDirty_hits::total       106234                       # number of WritebackDirty hits
system.cache_small.WritebackDirty_accesses::.writebacks       106234                       # number of WritebackDirty accesses(hits+misses)
system.cache_small.WritebackDirty_accesses::total       106234                       # number of WritebackDirty accesses(hits+misses)
system.cache_small.power_state.pwrStateResidencyTicks::UNDEFINED  12509745000                       # Cumulative time (in ticks) in various power states
system.cache_small.tags.tagsinuse        53478.005930                       # Cycle average of tags in use
system.cache_small.tags.total_refs                  0                       # Total number of references to valid blocks.
system.cache_small.tags.sampled_refs                0                       # Sample count of references to valid blocks.
system.cache_small.tags.avg_refs                  nan                       # Average number of references to valid blocks.
system.cache_small.tags.warmup_cycle            76000                       # Cycle when the warmup percentage was hit.
system.cache_small.tags.occ_blocks::.cpu.inst   502.019272                       # Average occupied blocks per requestor
system.cache_small.tags.occ_blocks::.cpu.data 52975.986658                       # Average occupied blocks per requestor
system.cache_small.tags.occ_percent::.cpu.inst     0.003830                       # Average percentage of cache occupancy
system.cache_small.tags.occ_percent::.cpu.data     0.404175                       # Average percentage of cache occupancy
system.cache_small.tags.occ_percent::total     0.408005                       # Average percentage of cache occupancy
system.cache_small.tags.occ_task_id_blocks::1024       107298                       # Occupied blocks per task id
system.cache_small.tags.age_task_id_blocks_1024::0           87                       # Occupied blocks per task id
system.cache_small.tags.age_task_id_blocks_1024::1          773                       # Occupied blocks per task id
system.cache_small.tags.age_task_id_blocks_1024::2         7746                       # Occupied blocks per task id
system.cache_small.tags.age_task_id_blocks_1024::3        77444                       # Occupied blocks per task id
system.cache_small.tags.age_task_id_blocks_1024::4        21248                       # Occupied blocks per task id
system.cache_small.tags.occ_task_id_percent::1024     0.818619                       # Percentage of cache occupancy per task id
system.cache_small.tags.tag_accesses           320915                       # Number of tag accesses
system.cache_small.tags.data_accesses          320915                       # Number of data accesses
system.cache_small.tags.power_state.pwrStateResidencyTicks::UNDEFINED  12509745000                       # Cumulative time (in ticks) in various power states
system.icache.demand_hits::.cpu.inst          1562763                       # number of demand (read+write) hits
system.icache.demand_hits::total              1562763                       # number of demand (read+write) hits
system.icache.overall_hits::.cpu.inst         1562763                       # number of overall hits
system.icache.overall_hits::total             1562763                       # number of overall hits
system.icache.demand_misses::.cpu.inst            639                       # number of demand (read+write) misses
system.icache.demand_misses::total                639                       # number of demand (read+write) misses
system.icache.overall_misses::.cpu.inst           639                       # number of overall misses
system.icache.overall_misses::total               639                       # number of overall misses
system.icache.demand_miss_latency::.cpu.inst     40408000                       # number of demand (read+write) miss cycles
system.icache.demand_miss_latency::total     40408000                       # number of demand (read+write) miss cycles
system.icache.overall_miss_latency::.cpu.inst     40408000                       # number of overall miss cycles
system.icache.overall_miss_latency::total     40408000                       # number of overall miss cycles
system.icache.demand_accesses::.cpu.inst      1563402                       # number of demand (read+write) accesses
system.icache.demand_accesses::total          1563402                       # number of demand (read+write) accesses
system.icache.overall_accesses::.cpu.inst      1563402                       # number of overall (read+write) accesses
system.icache.overall_accesses::total         1563402                       # number of overall (read+write) accesses
system.icache.demand_miss_rate::.cpu.inst     0.000409                       # miss rate for demand accesses
system.icache.demand_miss_rate::total        0.000409                       # miss rate for demand accesses
system.icache.overall_miss_rate::.cpu.inst     0.000409                       # miss rate for overall accesses
system.icache.overall_miss_rate::total       0.000409                       # miss rate for overall accesses
system.icache.demand_avg_miss_latency::.cpu.inst 63236.306729                       # average overall miss latency
system.icache.demand_avg_miss_latency::total 63236.306729                       # average overall miss latency
system.icache.overall_avg_miss_latency::.cpu.inst 63236.306729                       # average overall miss latency
system.icache.overall_avg_miss_latency::total 63236.306729                       # average overall miss latency
system.icache.blocked_cycles::no_mshrs              0                       # number of cycles access was blocked
system.icache.blocked_cycles::no_targets            0                       # number of cycles access was blocked
system.icache.blocked::no_mshrs                     0                       # number of cycles access was blocked
system.icache.blocked::no_targets                   0                       # number of cycles access was blocked
system.icache.avg_blocked_cycles::no_mshrs          nan                       # average number of cycles each access was blocked
system.icache.avg_blocked_cycles::no_targets          nan                       # average number of cycles each access was blocked
system.icache.demand_mshr_misses::.cpu.inst          639                       # number of demand (read+write) MSHR misses
system.icache.demand_mshr_misses::total           639                       # number of demand (read+write) MSHR misses
system.icache.overall_mshr_misses::.cpu.inst          639                       # number of overall MSHR misses
system.icache.overall_mshr_misses::total          639                       # number of overall MSHR misses
system.icache.demand_mshr_miss_latency::.cpu.inst     39130000                       # number of demand (read+write) MSHR miss cycles
system.icache.demand_mshr_miss_latency::total     39130000                       # number of demand (read+write) MSHR miss cycles
system.icache.overall_mshr_miss_latency::.cpu.inst     39130000                       # number of overall MSHR miss cycles
system.icache.overall_mshr_miss_latency::total     39130000                       # number of overall MSHR miss cycles
system.icache.demand_mshr_miss_rate::.cpu.inst     0.000409                       # mshr miss rate for demand accesses
system.icache.demand_mshr_miss_rate::total     0.000409                       # mshr miss rate for demand accesses
system.icache.overall_mshr_miss_rate::.cpu.inst     0.000409                       # mshr miss rate for overall accesses
system.icache.overall_mshr_miss_rate::total     0.000409                       # mshr miss rate for overall accesses
system.icache.demand_avg_mshr_miss_latency::.cpu.inst 61236.306729                       # average overall mshr miss latency
system.icache.demand_avg_mshr_miss_latency::total 61236.306729                       # average overall mshr miss latency
system.icache.overall_avg_mshr_miss_latency::.cpu.inst 61236.306729                       # average overall mshr miss latency
system.icache.overall_avg_mshr_miss_latency::total 61236.306729                       # average overall mshr miss latency
system.icache.replacements                        417                       # number of replacements
system.icache.ReadReq_hits::.cpu.inst         1562763                       # number of ReadReq hits
system.icache.ReadReq_hits::total             1562763                       # number of ReadReq hits
system.icache.ReadReq_misses::.cpu.inst           639                       # number of ReadReq misses
system.icache.ReadReq_misses::total               639                       # number of ReadReq misses
system.icache.ReadReq_miss_latency::.cpu.inst     40408000                       # number of ReadReq miss cycles
system.icache.ReadReq_miss_latency::total     40408000                       # number of ReadReq miss cycles
system.icache.ReadReq_accesses::.cpu.inst      1563402                       # number of ReadReq accesses(hits+misses)
system.icache.ReadReq_accesses::total         1563402                       # number of ReadReq accesses(hits+misses)
system.icache.ReadReq_miss_rate::.cpu.inst     0.000409                       # miss rate for ReadReq accesses
system.icache.ReadReq_miss_rate::total       0.000409                       # miss rate for ReadReq accesses
system.icache.ReadReq_avg_miss_latency::.cpu.inst 63236.306729                       # average ReadReq miss latency
system.icache.ReadReq_avg_miss_latency::total 63236.306729                       # average ReadReq miss latency
system.icache.ReadReq_mshr_misses::.cpu.inst          639                       # number of ReadReq MSHR misses
system.icache.ReadReq_mshr_misses::total          639                       # number of ReadReq MSHR misses
system.icache.ReadReq_mshr_miss_latency::.cpu.inst     39130000                       # number of ReadReq MSHR miss cycles
system.icache.ReadReq_mshr_miss_latency::total     39130000                       # number of ReadReq MSHR miss cycles
system.icache.ReadReq_mshr_miss_rate::.cpu.inst     0.000409                       # mshr miss rate for ReadReq accesses
system.icache.ReadReq_mshr_miss_rate::total     0.000409                       # mshr miss rate for ReadReq accesses
system.icache.ReadReq_avg_mshr_miss_latency::.cpu.inst 61236.306729                       # average ReadReq mshr miss latency
system.icache.ReadReq_avg_mshr_miss_latency::total 61236.306729                       # average ReadReq mshr miss latency
system.icache.power_state.pwrStateResidencyTicks::UNDEFINED  12509745000                       # Cumulative time (in ticks) in various power states
system.icache.tags.tagsinuse               221.382117                       # Cycle average of tags in use
system.icache.tags.total_refs                   13746                       # Total number of references to valid blocks.
system.icache.tags.sampled_refs                   417                       # Sample count of references to valid blocks.
system.icache.tags.avg_refs                 32.964029                       # Average number of references to valid blocks.
system.icache.tags.warmup_cycle                 82000                       # Cycle when the warmup percentage was hit.
system.icache.tags.occ_blocks::.cpu.inst   221.382117                       # Average occupied blocks per requestor
system.icache.tags.occ_percent::.cpu.inst     0.864774                       # Average percentage of cache occupancy
system.icache.tags.occ_percent::total        0.864774                       # Average percentage of cache occupancy
system.icache.tags.occ_task_id_blocks::1024          222                       # Occupied blocks per task id
system.icache.tags.age_task_id_blocks_1024::4          222                       # Occupied blocks per task id
system.icache.tags.occ_task_id_percent::1024     0.867188                       # Percentage of cache occupancy per task id
system.icache.tags.tag_accesses               1564041                       # Number of tag accesses
system.icache.tags.data_accesses              1564041                       # Number of data accesses
system.icache.tags.power_state.pwrStateResidencyTicks::UNDEFINED  12509745000                       # Cumulative time (in ticks) in various power states
system.membus.trans_dist::ReadReq              107298                       # Transaction distribution
system.membus.trans_dist::ReadResp             107298                       # Transaction distribution
system.membus.pkt_count_system.cache_small.mem_side::system.mem_ctrl.port       214596                       # Packet count per connected master and slave (bytes)
system.membus.pkt_count_system.cache_small.mem_side::total       214596                       # Packet count per connected master and slave (bytes)
system.membus.pkt_count::total                 214596                       # Packet count per connected master and slave (bytes)
system.membus.pkt_size_system.cache_small.mem_side::system.mem_ctrl.port      6867072                       # Cumulative packet size per connected master and slave (bytes)
system.membus.pkt_size_system.cache_small.mem_side::total      6867072                       # Cumulative packet size per connected master and slave (bytes)
system.membus.pkt_size::total                 6867072                       # Cumulative packet size per connected master and slave (bytes)
system.membus.reqLayer2.occupancy           107298000                       # Layer occupancy (ticks)
system.membus.reqLayer2.utilization               0.9                       # Layer utilization (%)
system.membus.respLayer1.occupancy          565203750                       # Layer occupancy (ticks)
system.membus.respLayer1.utilization              4.5                       # Layer utilization (%)
system.membus.power_state.pwrStateResidencyTicks::UNDEFINED  12509745000                       # Cumulative time (in ticks) in various power states
system.mem_ctrl.bytes_read::.cpu.inst           32256                       # Number of bytes read from this memory
system.mem_ctrl.bytes_read::.cpu.data         6834816                       # Number of bytes read from this memory
system.mem_ctrl.bytes_read::total             6867072                       # Number of bytes read from this memory
system.mem_ctrl.bytes_inst_read::.cpu.inst        32256                       # Number of instructions bytes read from this memory
system.mem_ctrl.bytes_inst_read::total          32256                       # Number of instructions bytes read from this memory
system.mem_ctrl.num_reads::.cpu.inst              504                       # Number of read requests responded to by this memory
system.mem_ctrl.num_reads::.cpu.data           106794                       # Number of read requests responded to by this memory
system.mem_ctrl.num_reads::total               107298                       # Number of read requests responded to by this memory
system.mem_ctrl.bw_read::.cpu.inst            2578470                       # Total read bandwidth from this memory (bytes/s)
system.mem_ctrl.bw_read::.cpu.data          546359338                       # Total read bandwidth from this memory (bytes/s)
system.mem_ctrl.bw_read::total              548937808                       # Total read bandwidth from this memory (bytes/s)
system.mem_ctrl.bw_inst_read::.cpu.inst       2578470                       # Instruction read bandwidth from this memory (bytes/s)
system.mem_ctrl.bw_inst_read::total           2578470                       # Instruction read bandwidth from this memory (bytes/s)
system.mem_ctrl.bw_total::.cpu.inst           2578470                       # Total bandwidth to/from this memory (bytes/s)
system.mem_ctrl.bw_total::.cpu.data         546359338                       # Total bandwidth to/from this memory (bytes/s)
system.mem_ctrl.bw_total::total             548937808                       # Total bandwidth to/from this memory (bytes/s)
system.mem_ctrl.avgPriority_.cpu.inst::samples       504.00                       # Average QoS priority value for accepted requests
system.mem_ctrl.avgPriority_.cpu.data::samples    106794.00                       # Average QoS priority value for accepted requests
system.mem_ctrl.priorityMinLatency       0.000000018750                       # per QoS priority minimum request to response latency (s)
system.mem_ctrl.priorityMaxLatency       0.000000570500                       # per QoS priority maximum request to response latency (s)
system.mem_ctrl.numReadWriteTurnArounds             0                       # Number of turnarounds from READ to WRITE
system.mem_ctrl.numWriteReadTurnArounds             0                       # Number of turnarounds from WRITE to READ
system.mem_ctrl.numStayReadState               217808                       # Number of times bus staying in READ state
system.mem_ctrl.numStayWriteState                   0                       # Number of times bus staying in WRITE state
system.mem_ctrl.readReqs                       107298                       # Number of read requests accepted
system.mem_ctrl.writeReqs                           0                       # Number of write requests accepted
system.mem_ctrl.readBursts                     107298                       # Number of DRAM read bursts, including those serviced by the write queue
system.mem_ctrl.writeBursts                         0                       # Number of DRAM write bursts, including those merged in the write queue
system.mem_ctrl.servicedByWrQ                       0                       # Number of DRAM read bursts serviced by the write queue
system.mem_ctrl.mergedWrBursts                      0                       # Number of DRAM write bursts merged with an existing one
system.mem_ctrl.neitherReadNorWriteReqs             0                       # Number of requests that are neither read nor write
system.mem_ctrl.perBankRdBursts::0               6731                       # Per bank write bursts
system.mem_ctrl.perBankRdBursts::1               6684                       # Per bank write bursts
system.mem_ctrl.perBankRdBursts::2               6691                       # Per bank write bursts
system.mem_ctrl.perBankRdBursts::3               6702                       # Per bank write bursts
system.mem_ctrl.perBankRdBursts::4               6694                       # Per bank write bursts
system.mem_ctrl.perBankRdBursts::5               6694                       # Per bank write bursts
system.mem_ctrl.perBankRdBursts::6               6683                       # Per bank write bursts
system.mem_ctrl.perBankRdBursts::7               6660                       # Per bank write bursts
system.mem_ctrl.perBankRdBursts::8               6670                       # Per bank write bursts
system.mem_ctrl.perBankRdBursts::9               6736                       # Per bank write bursts
system.mem_ctrl.perBankRdBursts::10              6704                       # Per bank write bursts
system.mem_ctrl.perBankRdBursts::11              6699                       # Per bank write bursts
system.mem_ctrl.perBankRdBursts::12              6695                       # Per bank write bursts
system.mem_ctrl.perBankRdBursts::13              6742                       # Per bank write bursts
system.mem_ctrl.perBankRdBursts::14              6764                       # Per bank write bursts
system.mem_ctrl.perBankRdBursts::15              6749                       # Per bank write bursts
system.mem_ctrl.perBankWrBursts::0                  0                       # Per bank write bursts
system.mem_ctrl.perBankWrBursts::1                  0                       # Per bank write bursts
system.mem_ctrl.perBankWrBursts::2                  0                       # Per bank write bursts
system.mem_ctrl.perBankWrBursts::3                  0                       # Per bank write bursts
system.mem_ctrl.perBankWrBursts::4                  0                       # Per bank write bursts
system.mem_ctrl.perBankWrBursts::5                  0                       # Per bank write bursts
system.mem_ctrl.perBankWrBursts::6                  0                       # Per bank write bursts
system.mem_ctrl.perBankWrBursts::7                  0                       # Per bank write bursts
system.mem_ctrl.perBankWrBursts::8                  0                       # Per bank write bursts
system.mem_ctrl.perBankWrBursts::9                  0                       # Per bank write bursts
system.mem_ctrl.perBankWrBursts::10                 0                       # Per bank write bursts
system.mem_ctrl.perBankWrBursts::11                 0                       # Per bank write bursts
system.mem_ctrl.perBankWrBursts::12                 0                       # Per bank write bursts
system.mem_ctrl.perBankWrBursts::13                 0                       # Per bank write bursts
system.mem_ctrl.perBankWrBursts::14                 0                       # Per bank write bursts
system.mem_ctrl.perBankWrBursts::15                 0                       # Per bank write bursts
system.mem_ctrl.avgRdQLen                        1.00                       # Average read queue length when enqueuing
system.mem_ctrl.avgWrQLen                        0.00                       # Average write queue length when enqueuing
system.mem_ctrl.totQLat                     467039750                       # Total ticks spent queuing
system.mem_ctrl.totBusLat                   536490000                       # Total ticks spent in databus transfers
system.mem_ctrl.totMemAccLat               2478877250                       # Total ticks spent from burst creation until serviced by the DRAM
system.mem_ctrl.avgQLat                       4352.73                       # Average queueing delay per DRAM burst
system.mem_ctrl.avgBusLat                     5000.00                       # Average bus latency per DRAM burst
system.mem_ctrl.avgMemAccLat                 23102.73                       # Average memory access latency per DRAM burst
system.mem_ctrl.numRdRetry                          0                       # Number of times read queue was full causing retry
system.mem_ctrl.numWrRetry                          0                       # Number of times write queue was full causing retry
system.mem_ctrl.readRowHits                     99026                       # Number of row buffer hits during reads
system.mem_ctrl.writeRowHits                        0                       # Number of row buffer hits during writes
system.mem_ctrl.readRowHitRate                  92.29                       # Row buffer hit rate for reads
system.mem_ctrl.writeRowHitRate                   nan                       # Row buffer hit rate for writes
system.mem_ctrl.readPktSize::0                      0                       # Read request sizes (log2)
system.mem_ctrl.readPktSize::1                      0                       # Read request sizes (log2)
system.mem_ctrl.readPktSize::2                      0                       # Read request sizes (log2)
system.mem_ctrl.readPktSize::3                      0                       # Read request sizes (log2)
system.mem_ctrl.readPktSize::4                      0                       # Read request sizes (log2)
system.mem_ctrl.readPktSize::5                      0                       # Read request sizes (log2)
system.mem_ctrl.readPktSize::6                 107298                       # Read request sizes (log2)
system.mem_ctrl.writePktSize::0                     0                       # Write request sizes (log2)
system.mem_ctrl.writePktSize::1                     0                       # Write request sizes (log2)
system.mem_ctrl.writePktSize::2                     0                       # Write request sizes (log2)
system.mem_ctrl.writePktSize::3                     0                       # Write request sizes (log2)
system.mem_ctrl.writePktSize::4                     0                       # Write request sizes (log2)
system.mem_ctrl.writePktSize::5                     0                       # Write request sizes (log2)
system.mem_ctrl.writePktSize::6                     0                       # Write request sizes (log2)
system.mem_ctrl.rdQLenPdf::0                   107298                       # What read queue length does an incoming req see
system.mem_ctrl.rdQLenPdf::1                        0                       # What read queue length does an incoming req see
system.mem_ctrl.rdQLenPdf::2                        0                       # What read queue length does an incoming req see
system.mem_ctrl.rdQLenPdf::3                        0                       # What read queue length does an incoming req see
system.mem_ctrl.rdQLenPdf::4                        0                       # What read queue length does an incoming req see
system.mem_ctrl.rdQLenPdf::5                        0                       # What read queue length does an incoming req see
system.mem_ctrl.rdQLenPdf::6                        0                       # What read queue length does an incoming req see
system.mem_ctrl.rdQLenPdf::7                        0                       # What read queue length does an incoming req see
system.mem_ctrl.rdQLenPdf::8                        0                       # What read queue length does an incoming req see
system.mem_ctrl.rdQLenPdf::9                        0                       # What read queue length does an incoming req see
system.mem_ctrl.rdQLenPdf::10                       0                       # What read queue length does an incoming req see
system.mem_ctrl.rdQLenPdf::11                       0                       # What read queue length does an incoming req see
system.mem_ctrl.rdQLenPdf::12                       0                       # What read queue length does an incoming req see
system.mem_ctrl.rdQLenPdf::13                       0                       # What read queue length does an incoming req see
system.mem_ctrl.rdQLenPdf::14                       0                       # What read queue length does an incoming req see
system.mem_ctrl.rdQLenPdf::15                       0                       # What read queue length does an incoming req see
system.mem_ctrl.rdQLenPdf::16                       0                       # What read queue length does an incoming req see
system.mem_ctrl.rdQLenPdf::17                       0                       # What read queue length does an incoming req see
system.mem_ctrl.rdQLenPdf::18                       0                       # What read queue length does an incoming req see
system.mem_ctrl.rdQLenPdf::19                       0                       # What read queue length does an incoming req see
system.mem_ctrl.rdQLenPdf::20                       0                       # What read queue length does an incoming req see
system.mem_ctrl.rdQLenPdf::21                       0                       # What read queue length does an incoming req see
system.mem_ctrl.rdQLenPdf::22                       0                       # What read queue length does an incoming req see
system.mem_ctrl.rdQLenPdf::23                       0                       # What read queue length does an incoming req see
system.mem_ctrl.rdQLenPdf::24                       0                       # What read queue length does an incoming req see
system.mem_ctrl.rdQLenPdf::25                       0                       # What read queue length does an incoming req see
system.mem_ctrl.rdQLenPdf::26                       0                       # What read queue length does an incoming req see
system.mem_ctrl.rdQLenPdf::27                       0                       # What read queue length does an incoming req see
system.mem_ctrl.rdQLenPdf::28                       0                       # What read queue length does an incoming req see
system.mem_ctrl.rdQLenPdf::29                       0                       # What read queue length does an incoming req see
system.mem_ctrl.rdQLenPdf::30                       0                       # What read queue length does an incoming req see
system.mem_ctrl.rdQLenPdf::31                       0                       # What read queue length does an incoming req see
system.mem_ctrl.wrQLenPdf::0                        0                       # What write queue length does an incoming req see
system.mem_ctrl.wrQLenPdf::1                        0                       # What write queue length does an incoming req see
system.mem_ctrl.wrQLenPdf::2                        0                       # What write queue length does an incoming req see
system.mem_ctrl.wrQLenPdf::3                        0                       # What write queue length does an incoming req see
system.mem_ctrl.wrQLenPdf::4                        0                       # What write queue length does an incoming req see
system.mem_ctrl.wrQLenPdf::5                        0                       # What write queue length does an incoming req see
system.mem_ctrl.wrQLenPdf::6                        0                       # What write queue length does an incoming req see
system.mem_ctrl.wrQLenPdf::7                        0                       # What write queue length does an incoming req see
system.mem_ctrl.wrQLenPdf::8                        0                       # What write queue length does an incoming req see
system.mem_ctrl.wrQLenPdf::9                        0                       # What write queue length does an incoming req see
system.mem_ctrl.wrQLenPdf::10                       0                       # What write queue length does an incoming req see
system.mem_ctrl.wrQLenPdf::11                       0                       # What write queue length does an incoming req see
system.mem_ctrl.wrQLenPdf::12                       0                       # What write queue length does an incoming req see
system.mem_ctrl.wrQLenPdf::13                       0                       # What write queue length does an incoming req see
system.mem_ctrl.wrQLenPdf::14                       0                       # What write queue length does an incoming req see
system.mem_ctrl.wrQLenPdf::15                       0                       # What write queue length does an incoming req see
system.mem_ctrl.wrQLenPdf::16                       0                       # What write queue length does an incoming req see
system.mem_ctrl.wrQLenPdf::17                       0                       # What write queue length does an incoming req see
system.mem_ctrl.wrQLenPdf::18                       0                       # What write queue length does an incoming req see
system.mem_ctrl.wrQLenPdf::19                       0                       # What write queue length does an incoming req see
system.mem_ctrl.wrQLenPdf::20                       0                       # What write queue length does an incoming req see
system.mem_ctrl.wrQLenPdf::21                       0                       # What write queue length does an incoming req see
system.mem_ctrl.wrQLenPdf::22                       0                       # What write queue length does an incoming req see
system.mem_ctrl.wrQLenPdf::23                       0                       # What write queue length does an incoming req see
system.mem_ctrl.wrQLenPdf::24                       0                       # What write queue length does an incoming req see
system.mem_ctrl.wrQLenPdf::25                       0                       # What write queue length does an incoming req see
system.mem_ctrl.wrQLenPdf::26                       0                       # What write queue length does an incoming req see
system.mem_ctrl.wrQLenPdf::27                       0                       # What write queue length does an incoming req see
system.mem_ctrl.wrQLenPdf::28                       0                       # What write queue length does an incoming req see
system.mem_ctrl.wrQLenPdf::29                       0                       # What write queue length does an incoming req see
system.mem_ctrl.wrQLenPdf::30                       0                       # What write queue length does an incoming req see
system.mem_ctrl.wrQLenPdf::31                       0                       # What write queue length does an incoming req see
system.mem_ctrl.wrQLenPdf::32                       0                       # What write queue length does an incoming req see
system.mem_ctrl.wrQLenPdf::33                       0                       # What write queue length does an incoming req see
system.mem_ctrl.wrQLenPdf::34                       0                       # What write queue length does an incoming req see
system.mem_ctrl.wrQLenPdf::35                       0                       # What write queue length does an incoming req see
system.mem_ctrl.wrQLenPdf::36                       0                       # What write queue length does an incoming req see
system.mem_ctrl.wrQLenPdf::37                       0                       # What write queue length does an incoming req see
system.mem_ctrl.wrQLenPdf::38                       0                       # What write queue length does an incoming req see
system.mem_ctrl.wrQLenPdf::39                       0                       # What write queue length does an incoming req see
system.mem_ctrl.wrQLenPdf::40                       0                       # What write queue length does an incoming req see
system.mem_ctrl.wrQLenPdf::41                       0                       # What write queue length does an incoming req see
system.mem_ctrl.wrQLenPdf::42                       0                       # What write queue length does an incoming req see
system.mem_ctrl.wrQLenPdf::43                       0                       # What write queue length does an incoming req see
system.mem_ctrl.wrQLenPdf::44                       0                       # What write queue length does an incoming req see
system.mem_ctrl.wrQLenPdf::45                       0                       # What write queue length does an incoming req see
system.mem_ctrl.wrQLenPdf::46                       0                       # What write queue length does an incoming req see
system.mem_ctrl.wrQLenPdf::47                       0                       # What write queue length does an incoming req see
system.mem_ctrl.wrQLenPdf::48                       0                       # What write queue length does an incoming req see
system.mem_ctrl.wrQLenPdf::49                       0                       # What write queue length does an incoming req see
system.mem_ctrl.wrQLenPdf::50                       0                       # What write queue length does an incoming req see
system.mem_ctrl.wrQLenPdf::51                       0                       # What write queue length does an incoming req see
system.mem_ctrl.wrQLenPdf::52                       0                       # What write queue length does an incoming req see
system.mem_ctrl.wrQLenPdf::53                       0                       # What write queue length does an incoming req see
system.mem_ctrl.wrQLenPdf::54                       0                       # What write queue length does an incoming req see
system.mem_ctrl.wrQLenPdf::55                       0                       # What write queue length does an incoming req see
system.mem_ctrl.wrQLenPdf::56                       0                       # What write queue length does an incoming req see
system.mem_ctrl.wrQLenPdf::57                       0                       # What write queue length does an incoming req see
system.mem_ctrl.wrQLenPdf::58                       0                       # What write queue length does an incoming req see
system.mem_ctrl.wrQLenPdf::59                       0                       # What write queue length does an incoming req see
system.mem_ctrl.wrQLenPdf::60                       0                       # What write queue length does an incoming req see
system.mem_ctrl.wrQLenPdf::61                       0                       # What write queue length does an incoming req see
system.mem_ctrl.wrQLenPdf::62                       0                       # What write queue length does an incoming req see
system.mem_ctrl.wrQLenPdf::63                       0                       # What write queue length does an incoming req see
system.mem_ctrl.bytesPerActivate::samples         8270                       # Bytes accessed per row activation
system.mem_ctrl.bytesPerActivate::mean     830.281983                       # Bytes accessed per row activation
system.mem_ctrl.bytesPerActivate::gmean    700.754106                       # Bytes accessed per row activation
system.mem_ctrl.bytesPerActivate::stdev    330.312705                       # Bytes accessed per row activation
system.mem_ctrl.bytesPerActivate::0-127           199      2.41%      2.41% # Bytes accessed per row activation
system.mem_ctrl.bytesPerActivate::128-255         1044     12.62%     15.03% # Bytes accessed per row activation
system.mem_ctrl.bytesPerActivate::256-383          227      2.74%     17.78% # Bytes accessed per row activation
system.mem_ctrl.bytesPerActivate::384-511          213      2.58%     20.35% # Bytes accessed per row activation
system.mem_ctrl.bytesPerActivate::512-639          205      2.48%     22.83% # Bytes accessed per row activation
system.mem_ctrl.bytesPerActivate::640-767          204      2.47%     25.30% # Bytes accessed per row activation
system.mem_ctrl.bytesPerActivate::768-895          203      2.45%     27.75% # Bytes accessed per row activation
system.mem_ctrl.bytesPerActivate::896-1023          201      2.43%     30.18% # Bytes accessed per row activation
system.mem_ctrl.bytesPerActivate::1024-1151         5774     69.82%    100.00% # Bytes accessed per row activation
system.mem_ctrl.bytesPerActivate::total          8270                       # Bytes accessed per row activation
system.mem_ctrl.bytesReadDRAM                 6867072                       # Total number of bytes read from DRAM
system.mem_ctrl.bytesReadWrQ                        0                       # Total number of bytes read from write queue
system.mem_ctrl.bytesWritten                        0                       # Total number of bytes written to DRAM
system.mem_ctrl.bytesReadSys                  6867072                       # Total read bytes from the system interface side
system.mem_ctrl.bytesWrittenSys                     0                       # Total written bytes from the system interface side
system.mem_ctrl.avgRdBW                        548.94                       # Average DRAM read bandwidth in MiByte/s
system.mem_ctrl.avgWrBW                          0.00                       # Average achieved write bandwidth in MiByte/s
system.mem_ctrl.avgRdBWSys                     548.94                       # Average system read bandwidth in MiByte/s
system.mem_ctrl.avgWrBWSys                       0.00                       # Average system write bandwidth in MiByte/s
system.mem_ctrl.peakBW                       12800.00                       # Theoretical peak bandwidth in MiByte/s
system.mem_ctrl.busUtil                          4.29                       # Data bus utilization in percentage
system.mem_ctrl.busUtilRead                      4.29                       # Data bus utilization in percentage for reads
system.mem_ctrl.busUtilWrite                     0.00                       # Data bus utilization in percentage for writes
system.mem_ctrl.totGap                    12509651000                       # Total gap between requests
system.mem_ctrl.avgGap                      116587.92                       # Average gap between requests
system.mem_ctrl.masterReadBytes::.cpu.inst        32256                       # Per-master bytes read from memory
system.mem_ctrl.masterReadBytes::.cpu.data      6834816                       # Per-master bytes read from memory
system.mem_ctrl.masterReadRate::.cpu.inst 2578469.824924489018                       # Per-master bytes read from memory rate (Bytes/sec)
system.mem_ctrl.masterReadRate::.cpu.data 546359338.259892582893                       # Per-master bytes read from memory rate (Bytes/sec)
system.mem_ctrl.masterReadAccesses::.cpu.inst          504                       # Per-master read serviced memory accesses
system.mem_ctrl.masterReadAccesses::.cpu.data       106794                       # Per-master read serviced memory accesses
system.mem_ctrl.masterReadTotalLat::.cpu.inst     12711250                       # Per-master read total memory access latency
system.mem_ctrl.masterReadTotalLat::.cpu.data   2466166000                       # Per-master read total memory access latency
system.mem_ctrl.masterReadAvgLat::.cpu.inst     25220.73                       # Per-master read average memory access latency
system.mem_ctrl.masterReadAvgLat::.cpu.data     23092.74                       # Per-master read average memory access latency
system.mem_ctrl.pageHitRate                     92.29                       # Row buffer hit rate, read and write combined
system.mem_ctrl.rank1.actEnergy              29638140                       # Energy for activate commands per rank (pJ)
system.mem_ctrl.rank1.preEnergy              15745455                       # Energy for precharge commands per rank (pJ)
system.mem_ctrl.rank1.readEnergy            383839260                       # Energy for read commands per rank (pJ)
system.mem_ctrl.rank1.writeEnergy                   0                       # Energy for write commands per rank (pJ)
system.mem_ctrl.rank1.refreshEnergy      987111840.000000                       # Energy for refresh commands per rank (pJ)
system.mem_ctrl.rank1.actBackEnergy        2922110700                       # Energy for active background per rank (pJ)
system.mem_ctrl.rank1.preBackEnergy        2343017280                       # Energy for precharge background per rank (pJ)
system.mem_ctrl.rank1.actPowerDownEnergy            0                       # Energy for active power-down per rank (pJ)
system.mem_ctrl.rank1.prePowerDownEnergy            0                       # Energy for precharge power-down per rank (pJ)
system.mem_ctrl.rank1.selfRefreshEnergy             0                       # Energy for self refresh per rank (pJ)
system.mem_ctrl.rank1.totalEnergy          6681462675                       # Total energy per rank (pJ)
system.mem_ctrl.rank1.averagePower         534.100629                       # Core power per rank (mW)
system.mem_ctrl.rank1.totalIdleTime                 0                       # Total Idle time Per DRAM Rank
system.mem_ctrl.rank1.memoryStateTime::IDLE   6036051500                       # Time in different power states
system.mem_ctrl.rank1.memoryStateTime::REF    417560000                       # Time in different power states
system.mem_ctrl.rank1.memoryStateTime::SREF            0                       # Time in different power states
system.mem_ctrl.rank1.memoryStateTime::PRE_PDN            0                       # Time in different power states
system.mem_ctrl.rank1.memoryStateTime::ACT   6056133500                       # Time in different power states
system.mem_ctrl.rank1.memoryStateTime::ACT_PDN            0                       # Time in different power states
system.mem_ctrl.rank0.actEnergy              29423940                       # Energy for activate commands per rank (pJ)
system.mem_ctrl.rank0.preEnergy              15639195                       # Energy for precharge commands per rank (pJ)
system.mem_ctrl.rank0.readEnergy            382268460                       # Energy for read commands per rank (pJ)
system.mem_ctrl.rank0.writeEnergy                   0                       # Energy for write commands per rank (pJ)
system.mem_ctrl.rank0.refreshEnergy      987111840.000000                       # Energy for refresh commands per rank (pJ)
system.mem_ctrl.rank0.actBackEnergy        2914980570                       # Energy for active background per rank (pJ)
system.mem_ctrl.rank0.preBackEnergy        2349021600                       # Energy for precharge background per rank (pJ)
system.mem_ctrl.rank0.actPowerDownEnergy            0                       # Energy for active power-down per rank (pJ)
system.mem_ctrl.rank0.prePowerDownEnergy            0                       # Energy for precharge power-down per rank (pJ)
system.mem_ctrl.rank0.selfRefreshEnergy             0                       # Energy for self refresh per rank (pJ)
system.mem_ctrl.rank0.totalEnergy          6678445605                       # Total energy per rank (pJ)
system.mem_ctrl.rank0.averagePower         533.859452                       # Core power per rank (mW)
system.mem_ctrl.rank0.totalIdleTime                 0                       # Total Idle time Per DRAM Rank
system.mem_ctrl.rank0.memoryStateTime::IDLE   6051795000                       # Time in different power states
system.mem_ctrl.rank0.memoryStateTime::REF    417560000                       # Time in different power states
system.mem_ctrl.rank0.memoryStateTime::SREF            0                       # Time in different power states
system.mem_ctrl.rank0.memoryStateTime::PRE_PDN            0                       # Time in different power states
system.mem_ctrl.rank0.memoryStateTime::ACT   6040390000                       # Time in different power states
system.mem_ctrl.rank0.memoryStateTime::ACT_PDN            0                       # Time in different power states
system.mem_ctrl.power_state.pwrStateResidencyTicks::UNDEFINED  12509745000                       # Cumulative time (in ticks) in various power states
system.cache_medium.blocked_cycles::no_mshrs            0                       # number of cycles access was blocked
system.cache_medium.blocked_cycles::no_targets            0                       # number of cycles access was blocked
system.cache_medium.blocked::no_mshrs               0                       # number of cycles access was blocked
system.cache_medium.blocked::no_targets             0                       # number of cycles access was blocked
system.cache_medium.avg_blocked_cycles::no_mshrs          nan                       # average number of cycles each access was blocked
system.cache_medium.avg_blocked_cycles::no_targets          nan                       # average number of cycles each access was blocked
system.cache_medium.replacements                    0                       # number of replacements
system.cache_medium.power_state.pwrStateResidencyTicks::UNDEFINED  12509745000                       # Cumulative time (in ticks) in various power states
system.cache_medium.tags.tagsinuse                  0                       # Cycle average of tags in use
system.cache_medium.tags.total_refs                 0                       # Total number of references to valid blocks.
system.cache_medium.tags.sampled_refs               0                       # Sample count of references to valid blocks.
system.cache_medium.tags.avg_refs                 nan                       # Average number of references to valid blocks.
system.cache_medium.tags.warmup_cycle               0                       # Cycle when the warmup percentage was hit.
system.cache_medium.tags.tag_accesses               0                       # Number of tag accesses
system.cache_medium.tags.data_accesses              0                       # Number of data accesses
system.cache_medium.tags.power_state.pwrStateResidencyTicks::UNDEFINED  12509745000                       # Cumulative time (in ticks) in various power states
system.clk_domain.clock                          1000                       # Clock period in ticks
system.clk_domain.voltage_domain.voltage            1                       # Voltage in Volts
system.dcache.demand_hits::.cpu.data           753320                       # number of demand (read+write) hits
system.dcache.demand_hits::total               753320                       # number of demand (read+write) hits
system.dcache.overall_hits::.cpu.data          753320                       # number of overall hits
system.dcache.overall_hits::total              753320                       # number of overall hits
system.dcache.demand_misses::.cpu.data         106874                       # number of demand (read+write) misses
system.dcache.demand_misses::total             106874                       # number of demand (read+write) misses
system.dcache.overall_misses::.cpu.data        106874                       # number of overall misses
system.dcache.overall_misses::total            106874                       # number of overall misses
system.dcache.demand_miss_latency::.cpu.data   7835654000                       # number of demand (read+write) miss cycles
system.dcache.demand_miss_latency::total   7835654000                       # number of demand (read+write) miss cycles
system.dcache.overall_miss_latency::.cpu.data   7835654000                       # number of overall miss cycles
system.dcache.overall_miss_latency::total   7835654000                       # number of overall miss cycles
system.dcache.demand_accesses::.cpu.data       860194                       # number of demand (read+write) accesses
system.dcache.demand_accesses::total           860194                       # number of demand (read+write) accesses
system.dcache.overall_accesses::.cpu.data       860194                       # number of overall (read+write) accesses
system.dcache.overall_accesses::total          860194                       # number of overall (read+write) accesses
system.dcache.demand_miss_rate::.cpu.data     0.124244                       # miss rate for demand accesses
system.dcache.demand_miss_rate::total        0.124244                       # miss rate for demand accesses
system.dcache.overall_miss_rate::.cpu.data     0.124244                       # miss rate for overall accesses
system.dcache.overall_miss_rate::total       0.124244                       # miss rate for overall accesses
system.dcache.demand_avg_miss_latency::.cpu.data 73316.746823                       # average overall miss latency
system.dcache.demand_avg_miss_latency::total 73316.746823                       # average overall miss latency
system.dcache.overall_avg_miss_latency::.cpu.data 73316.746823                       # average overall miss latency
system.dcache.overall_avg_miss_latency::total 73316.746823                       # average overall miss latency
system.dcache.blocked_cycles::no_mshrs              0                       # number of cycles access was blocked
system.dcache.blocked_cycles::no_targets            0                       # number of cycles access was blocked
system.dcache.blocked::no_mshrs                     0                       # number of cycles access was blocked
system.dcache.blocked::no_targets                   0                       # number of cycles access was blocked
system.dcache.avg_blocked_cycles::no_mshrs          nan                       # average number of cycles each access was blocked
system.dcache.avg_blocked_cycles::no_targets          nan                       # average number of cycles each access was blocked
system.dcache.writebacks::.writebacks          106514                       # number of writebacks
system.dcache.writebacks::total                106514                       # number of writebacks
system.dcache.demand_mshr_misses::.cpu.data       106874                       # number of demand (read+write) MSHR misses
system.dcache.demand_mshr_misses::total        106874                       # number of demand (read+write) MSHR misses
system.dcache.overall_mshr_misses::.cpu.data       106874                       # number of overall MSHR misses
system.dcache.overall_mshr_misses::total       106874                       # number of overall MSHR misses
system.dcache.demand_mshr_miss_latency::.cpu.data   7621908000                       # number of demand (read+write) MSHR miss cycles
system.dcache.demand_mshr_miss_latency::total   7621908000                       # number of demand (read+write) MSHR miss cycles
system.dcache.overall_mshr_miss_latency::.cpu.data   7621908000                       # number of overall MSHR miss cycles
system.dcache.overall_mshr_miss_latency::total   7621908000                       # number of overall MSHR miss cycles
system.dcache.demand_mshr_miss_rate::.cpu.data     0.124244                       # mshr miss rate for demand accesses
system.dcache.demand_mshr_miss_rate::total     0.124244                       # mshr miss rate for demand accesses
system.dcache.overall_mshr_miss_rate::.cpu.data     0.124244                       # mshr miss rate for overall accesses
system.dcache.overall_mshr_miss_rate::total     0.124244                       # mshr miss rate for overall accesses
system.dcache.demand_avg_mshr_miss_latency::.cpu.data 71316.765537                       # average overall mshr miss latency
system.dcache.demand_avg_mshr_miss_latency::total 71316.765537                       # average overall mshr miss latency
system.dcache.overall_avg_mshr_miss_latency::.cpu.data 71316.765537                       # average overall mshr miss latency
system.dcache.overall_avg_mshr_miss_latency::total 71316.765537                       # average overall mshr miss latency
system.dcache.replacements                     106617                       # number of replacements
system.dcache.ReadReq_hits::.cpu.data            4362                       # number of ReadReq hits
system.dcache.ReadReq_hits::total                4362                       # number of ReadReq hits
system.dcache.ReadReq_misses::.cpu.data           157                       # number of ReadReq misses
system.dcache.ReadReq_misses::total               157                       # number of ReadReq misses
system.dcache.ReadReq_miss_latency::.cpu.data      8516000                       # number of ReadReq miss cycles
system.dcache.ReadReq_miss_latency::total      8516000                       # number of ReadReq miss cycles
system.dcache.ReadReq_accesses::.cpu.data         4519                       # number of ReadReq accesses(hits+misses)
system.dcache.ReadReq_accesses::total            4519                       # number of ReadReq accesses(hits+misses)
system.dcache.ReadReq_miss_rate::.cpu.data     0.034742                       # miss rate for ReadReq accesses
system.dcache.ReadReq_miss_rate::total       0.034742                       # miss rate for ReadReq accesses
system.dcache.ReadReq_avg_miss_latency::.cpu.data 54242.038217                       # average ReadReq miss latency
system.dcache.ReadReq_avg_miss_latency::total 54242.038217                       # average ReadReq miss latency
system.dcache.ReadReq_mshr_misses::.cpu.data          157                       # number of ReadReq MSHR misses
system.dcache.ReadReq_mshr_misses::total          157                       # number of ReadReq MSHR misses
system.dcache.ReadReq_mshr_miss_latency::.cpu.data      8202000                       # number of ReadReq MSHR miss cycles
system.dcache.ReadReq_mshr_miss_latency::total      8202000                       # number of ReadReq MSHR miss cycles
system.dcache.ReadReq_mshr_miss_rate::.cpu.data     0.034742                       # mshr miss rate for ReadReq accesses
system.dcache.ReadReq_mshr_miss_rate::total     0.034742                       # mshr miss rate for ReadReq accesses
system.dcache.ReadReq_avg_mshr_miss_latency::.cpu.data 52242.038217                       # average ReadReq mshr miss latency
system.dcache.ReadReq_avg_mshr_miss_latency::total 52242.038217                       # average ReadReq mshr miss latency
system.dcache.WriteReq_hits::.cpu.data         748958                       # number of WriteReq hits
system.dcache.WriteReq_hits::total             748958                       # number of WriteReq hits
system.dcache.WriteReq_misses::.cpu.data       106717                       # number of WriteReq misses
system.dcache.WriteReq_misses::total           106717                       # number of WriteReq misses
system.dcache.WriteReq_miss_latency::.cpu.data   7827138000                       # number of WriteReq miss cycles
system.dcache.WriteReq_miss_latency::total   7827138000                       # number of WriteReq miss cycles
system.dcache.WriteReq_accesses::.cpu.data       855675                       # number of WriteReq accesses(hits+misses)
[...]
system.dcache.tags.occ_percent::total        0.999162                       # Average percentage of cache occupancy
system.dcache.tags.occ_task_id_blocks::1024          256                       # Occupied blocks per task id
system.dcache.tags.age_task_id_blocks_1024::0           83                       # Occupied blocks per task id
system.dcache.tags.age_task_id_blocks_1024::1          173                       # Occupied blocks per task id
system.dcache.tags.occ_task_id_percent::1024            1                       # Percentage of cache occupancy per task id
system.dcache.tags.tag_accesses               6836632                       # Number of tag accesses
system.dcache.tags.data_accesses              6836632                       # Number of data accesses
system.dcache.tags.power_state.pwrStateResidencyTicks::UNDEFINED  91982928000                       # Cumulative time (in ticks) in various power states
system.cache_large.blocked_cycles::no_mshrs            0                       # number of cycles access was blocked
system.cache_large.blocked_cycles::no_targets            0                       # number of cycles access was blocked
system.cache_large.blocked::no_mshrs                0                       # number of cycles access was blocked
system.cache_large.blocked::no_targets              0                       # number of cycles access was blocked
system.cache_large.avg_blocked_cycles::no_mshrs          nan                       # average number of cycles each access was blocked
system.cache_large.avg_blocked_cycles::no_targets          nan                       # average number of cycles each access was blocked
system.cache_large.replacements                     0                       # number of replacements
system.cache_large.power_state.pwrStateResidencyTicks::UNDEFINED  91982928000                       # Cumulative time (in ticks) in various power states
system.cache_large.tags.tagsinuse                   0                       # Cycle average of tags in use
system.cache_large.tags.total_refs                  0                       # Total number of references to valid blocks.
system.cache_large.tags.sampled_refs                0                       # Sample count of references to valid blocks.
system.cache_large.tags.avg_refs                  nan                       # Average number of references to valid blocks.
system.cache_large.tags.warmup_cycle                0                       # Cycle when the warmup percentage was hit.
system.cache_large.tags.tag_accesses                0                       # Number of tag accesses
system.cache_large.tags.data_accesses               0                       # Number of data accesses
system.cache_large.tags.power_state.pwrStateResidencyTicks::UNDEFINED  91982928000                       # Cumulative time (in ticks) in various power states
system.l2cache.demand_hits::.cpu.inst              62                       # number of demand (read+write) hits
system.l2cache.demand_hits::.cpu.data              67                       # number of demand (read+write) hits
system.l2cache.demand_hits::total                 129                       # number of demand (read+write) hits
system.l2cache.overall_hits::.cpu.inst             62                       # number of overall hits
system.l2cache.overall_hits::.cpu.data             67                       # number of overall hits
system.l2cache.overall_hits::total                129                       # number of overall hits
system.l2cache.demand_misses::.cpu.inst           577                       # number of demand (read+write) misses
system.l2cache.demand_misses::.cpu.data        758980                       # number of demand (read+write) misses
system.l2cache.demand_misses::total            759557                       # number of demand (read+write) misses
system.l2cache.overall_misses::.cpu.inst          577                       # number of overall misses
system.l2cache.overall_misses::.cpu.data       758980                       # number of overall misses
system.l2cache.overall_misses::total           759557                       # number of overall misses
system.l2cache.demand_miss_latency::.cpu.inst     35997000                       # number of demand (read+write) miss cycles
system.l2cache.demand_miss_latency::.cpu.data  54800165000                       # number of demand (read+write) miss cycles
system.l2cache.demand_miss_latency::total  54836162000                       # number of demand (read+write) miss cycles
system.l2cache.overall_miss_latency::.cpu.inst     35997000                       # number of overall miss cycles
system.l2cache.overall_miss_latency::.cpu.data  54800165000                       # number of overall miss cycles
system.l2cache.overall_miss_latency::total  54836162000                       # number of overall miss cycles
system.l2cache.demand_accesses::.cpu.inst          639                       # number of demand (read+write) accesses
system.l2cache.demand_accesses::.cpu.data       759047                       # number of demand (read+write) accesses
system.l2cache.demand_accesses::total          759686                       # number of demand (read+write) accesses
system.l2cache.overall_accesses::.cpu.inst          639                       # number of overall (read+write) accesses
system.l2cache.overall_accesses::.cpu.data       759047                       # number of overall (read+write) accesses
system.l2cache.overall_accesses::total         759686                       # number of overall (read+write) accesses
system.l2cache.demand_miss_rate::.cpu.inst     0.902973                       # miss rate for demand accesses
system.l2cache.demand_miss_rate::.cpu.data     0.999912                       # miss rate for demand accesses
system.l2cache.demand_miss_rate::total       0.999830                       # miss rate for demand accesses
system.l2cache.overall_miss_rate::.cpu.inst     0.902973                       # miss rate for overall accesses
system.l2cache.overall_miss_rate::.cpu.data     0.999912                       # miss rate for overall accesses
system.l2cache.overall_miss_rate::total      0.999830                       # miss rate for overall accesses
system.l2cache.demand_avg_miss_latency::.cpu.inst 62386.481802                       # average overall miss latency
system.l2cache.demand_avg_miss_latency::.cpu.data 72202.383462                       # average overall miss latency
system.l2cache.demand_avg_miss_latency::total 72194.926780                       # average overall miss latency
system.l2cache.overall_avg_miss_latency::.cpu.inst 62386.481802                       # average overall miss latency
system.l2cache.overall_avg_miss_latency::.cpu.data 72202.383462                       # average overall miss latency
system.l2cache.overall_avg_miss_latency::total 72194.926780                       # average overall miss latency
system.l2cache.blocked_cycles::no_mshrs             0                       # number of cycles access was blocked
system.l2cache.blocked_cycles::no_targets            0                       # number of cycles access was blocked
system.l2cache.blocked::no_mshrs                    0                       # number of cycles access was blocked
system.l2cache.blocked::no_targets                  0                       # number of cycles access was blocked
system.l2cache.avg_blocked_cycles::no_mshrs          nan                       # average number of cycles each access was blocked
system.l2cache.avg_blocked_cycles::no_targets          nan                       # average number of cycles each access was blocked
system.l2cache.writebacks::.writebacks         758408                       # number of writebacks
system.l2cache.writebacks::total               758408                       # number of writebacks
system.l2cache.demand_mshr_misses::.cpu.inst          577                       # number of demand (read+write) MSHR misses
system.l2cache.demand_mshr_misses::.cpu.data       758980                       # number of demand (read+write) MSHR misses
system.l2cache.demand_mshr_misses::total       759557                       # number of demand (read+write) MSHR misses
system.l2cache.overall_mshr_misses::.cpu.inst          577                       # number of overall MSHR misses
system.l2cache.overall_mshr_misses::.cpu.data       758980                       # number of overall MSHR misses
system.l2cache.overall_mshr_misses::total       759557                       # number of overall MSHR misses
system.l2cache.demand_mshr_miss_latency::.cpu.inst     34843000                       # number of demand (read+write) MSHR miss cycles
system.l2cache.demand_mshr_miss_latency::.cpu.data  53282205000                       # number of demand (read+write) MSHR miss cycles
system.l2cache.demand_mshr_miss_latency::total  53317048000                       # number of demand (read+write) MSHR miss cycles
system.l2cache.overall_mshr_miss_latency::.cpu.inst     34843000                       # number of overall MSHR miss cycles
system.l2cache.overall_mshr_miss_latency::.cpu.data  53282205000                       # number of overall MSHR miss cycles
system.l2cache.overall_mshr_miss_latency::total  53317048000                       # number of overall MSHR miss cycles
system.l2cache.demand_mshr_miss_rate::.cpu.inst     0.902973                       # mshr miss rate for demand accesses
system.l2cache.demand_mshr_miss_rate::.cpu.data     0.999912                       # mshr miss rate for demand accesses
system.l2cache.demand_mshr_miss_rate::total     0.999830                       # mshr miss rate for demand accesses
system.l2cache.overall_mshr_miss_rate::.cpu.inst     0.902973                       # mshr miss rate for overall accesses
system.l2cache.overall_mshr_miss_rate::.cpu.data     0.999912                       # mshr miss rate for overall accesses
system.l2cache.overall_mshr_miss_rate::total     0.999830                       # mshr miss rate for overall accesses
system.l2cache.demand_avg_mshr_miss_latency::.cpu.inst 60386.481802                       # average overall mshr miss latency
system.l2cache.demand_avg_mshr_miss_latency::.cpu.data 70202.383462                       # average overall mshr miss latency
system.l2cache.demand_avg_mshr_miss_latency::total 70194.926780                       # average overall mshr miss latency
system.l2cache.overall_avg_mshr_miss_latency::.cpu.inst 60386.481802                       # average overall mshr miss latency
system.l2cache.overall_avg_mshr_miss_latency::.cpu.data 70202.383462                       # average overall mshr miss latency
system.l2cache.overall_avg_mshr_miss_latency::total 70194.926780                       # average overall mshr miss latency
system.l2cache.replacements                    759190                       # number of replacements
system.l2cache.ReadReq_hits::.cpu.inst             62                       # number of ReadReq hits
system.l2cache.ReadReq_hits::.cpu.data             67                       # number of ReadReq hits
system.l2cache.ReadReq_hits::total                129                       # number of ReadReq hits
system.l2cache.ReadReq_misses::.cpu.inst          577                       # number of ReadReq misses
system.l2cache.ReadReq_misses::.cpu.data       758980                       # number of ReadReq misses
system.l2cache.ReadReq_misses::total           759557                       # number of ReadReq misses
system.l2cache.ReadReq_miss_latency::.cpu.inst     35997000                       # number of ReadReq miss cycles
system.l2cache.ReadReq_miss_latency::.cpu.data  54800165000                       # number of ReadReq miss cycles
system.l2cache.ReadReq_miss_latency::total  54836162000                       # number of ReadReq miss cycles
system.l2cache.ReadReq_accesses::.cpu.inst          639                       # number of ReadReq accesses(hits+misses)
system.l2cache.ReadReq_accesses::.cpu.data       759047                       # number of ReadReq accesses(hits+misses)
system.l2cache.ReadReq_accesses::total         759686                       # number of ReadReq accesses(hits+misses)
system.l2cache.ReadReq_miss_rate::.cpu.inst     0.902973                       # miss rate for ReadReq accesses
system.l2cache.ReadReq_miss_rate::.cpu.data     0.999912                       # miss rate for ReadReq accesses
system.l2cache.ReadReq_miss_rate::total      0.999830                       # miss rate for ReadReq accesses
system.l2cache.ReadReq_avg_miss_latency::.cpu.inst 62386.481802                       # average ReadReq miss latency
system.l2cache.ReadReq_avg_miss_latency::.cpu.data 72202.383462                       # average ReadReq miss latency
system.l2cache.ReadReq_avg_miss_latency::total 72194.926780                       # average ReadReq miss latency
system.l2cache.ReadReq_mshr_misses::.cpu.inst          577                       # number of ReadReq MSHR misses
system.l2cache.ReadReq_mshr_misses::.cpu.data       758980                       # number of ReadReq MSHR misses
system.l2cache.ReadReq_mshr_misses::total       759557                       # number of ReadReq MSHR misses
system.l2cache.ReadReq_mshr_miss_latency::.cpu.inst     34843000                       # number of ReadReq MSHR miss cycles
system.l2cache.ReadReq_mshr_miss_latency::.cpu.data  53282205000                       # number of ReadReq MSHR miss cycles
system.l2cache.ReadReq_mshr_miss_latency::total  53317048000                       # number of ReadReq MSHR miss cycles
system.l2cache.ReadReq_mshr_miss_rate::.cpu.inst     0.902973                       # mshr miss rate for ReadReq accesses
system.l2cache.ReadReq_mshr_miss_rate::.cpu.data     0.999912                       # mshr miss rate for ReadReq accesses
system.l2cache.ReadReq_mshr_miss_rate::total     0.999830                       # mshr miss rate for ReadReq accesses
system.l2cache.ReadReq_avg_mshr_miss_latency::.cpu.inst 60386.481802                       # average ReadReq mshr miss latency
system.l2cache.ReadReq_avg_mshr_miss_latency::.cpu.data 70202.383462                       # average ReadReq mshr miss latency
system.l2cache.ReadReq_avg_mshr_miss_latency::total 70194.926780                       # average ReadReq mshr miss latency
system.l2cache.WritebackDirty_hits::.writebacks       758688                       # number of WritebackDirty hits
system.l2cache.WritebackDirty_hits::total       758688                       # number of WritebackDirty hits
system.l2cache.WritebackDirty_accesses::.writebacks       758688                       # number of WritebackDirty accesses(hits+misses)
system.l2cache.WritebackDirty_accesses::total       758688                       # number of WritebackDirty accesses(hits+misses)
system.l2cache.power_state.pwrStateResidencyTicks::UNDEFINED  91982928000                       # Cumulative time (in ticks) in various power states
system.l2cache.tags.tagsinuse              511.628237                       # Cycle average of tags in use
system.l2cache.tags.total_refs                1518374                       # Total number of references to valid blocks.
system.l2cache.tags.sampled_refs               759702                       # Sample count of references to valid blocks.
system.l2cache.tags.avg_refs                 1.998644                       # Average number of references to valid blocks.
system.l2cache.tags.warmup_cycle                78000                       # Cycle when the warmup percentage was hit.
system.l2cache.tags.occ_blocks::.writebacks     0.052876                       # Average occupied blocks per requestor
system.l2cache.tags.occ_blocks::.cpu.inst     0.306944                       # Average occupied blocks per requestor
system.l2cache.tags.occ_blocks::.cpu.data   511.268417                       # Average occupied blocks per requestor
system.l2cache.tags.occ_percent::.writebacks     0.000103                       # Average percentage of cache occupancy
system.l2cache.tags.occ_percent::.cpu.inst     0.000600                       # Average percentage of cache occupancy
system.l2cache.tags.occ_percent::.cpu.data     0.998571                       # Average percentage of cache occupancy
system.l2cache.tags.occ_percent::total       0.999274                       # Average percentage of cache occupancy
system.l2cache.tags.occ_task_id_blocks::1024          512                       # Occupied blocks per task id
system.l2cache.tags.age_task_id_blocks_1024::0           83                       # Occupied blocks per task id
system.l2cache.tags.age_task_id_blocks_1024::1          429                       # Occupied blocks per task id
system.l2cache.tags.occ_task_id_percent::1024            1                       # Percentage of cache occupancy per task id
system.l2cache.tags.tag_accesses              2278076                       # Number of tag accesses
system.l2cache.tags.data_accesses             2278076                       # Number of data accesses
system.l2cache.tags.power_state.pwrStateResidencyTicks::UNDEFINED  91982928000                       # Cumulative time (in ticks) in various power states
system.l2bar.trans_dist::ReadReq               759686                       # Transaction distribution
system.l2bar.trans_dist::ReadResp              759686                       # Transaction distribution
system.l2bar.trans_dist::WritebackDirty        758688                       # Transaction distribution
system.l2bar.pkt_count_system.dcache.mem_side::system.l2cache.cpu_side      2276782                       # Packet count per connected master and slave (bytes)
system.l2bar.pkt_count_system.icache.mem_side::system.l2cache.cpu_side         1278                       # Packet count per connected master and slave (bytes)
system.l2bar.pkt_count::total                 2278060                       # Packet count per connected master and slave (bytes)
system.l2bar.pkt_size_system.dcache.mem_side::system.l2cache.cpu_side     97135040                       # Cumulative packet size per connected master and slave (bytes)
system.l2bar.pkt_size_system.icache.mem_side::system.l2cache.cpu_side        40896                       # Cumulative packet size per connected master and slave (bytes)
system.l2bar.pkt_size::total                 97175936                       # Cumulative packet size per connected master and slave (bytes)
system.l2bar.respLayer1.occupancy             3195000                       # Layer occupancy (ticks)
system.l2bar.respLayer1.utilization               0.0                       # Layer utilization (%)
system.l2bar.reqLayer0.occupancy           4553126000                       # Layer occupancy (ticks)
system.l2bar.reqLayer0.utilization                4.9                       # Layer utilization (%)
system.l2bar.respLayer0.occupancy          3795235000                       # Layer occupancy (ticks)
system.l2bar.respLayer0.utilization               4.1                       # Layer utilization (%)
system.l2bar.power_state.pwrStateResidencyTicks::UNDEFINED  91982928000                       # Cumulative time (in ticks) in various power states
system.cpu.dtb.walker.power_state.pwrStateResidencyTicks::UNDEFINED  91982928000                       # Cumulative time (in ticks) in various power states
system.cpu.interrupts.clk_domain.clock          16000                       # Clock period in ticks
system.cpu.itb.walker.power_state.pwrStateResidencyTicks::UNDEFINED  91982928000                       # Cumulative time (in ticks) in various power states
system.cpu.power_state.numTransitions               1                       # Number of power state transitions
system.cpu.power_state.pwrStateResidencyTicks::ON  91982928000                       # Cumulative time (in ticks) in various power states

---------- End Simulation Statistics   ----------
