
---------- Begin Simulation Statistics ----------
final_tick                                 3602907000                       # Number of ticks from beginning of simulation (restored from checkpoints and never reset)
host_inst_rate                                 123097                       # Simulator instruction rate (inst/s)
host_mem_usage                               34199488                       # Number of bytes of host memory used
host_op_rate                                   217019                       # Simulator op (including micro ops) rate (op/s)
host_seconds                                     8.12                       # Real time elapsed on the host
host_tick_rate                              443485553                       # Simulator tick rate (ticks/s)
sim_freq                                 1000000000000                       # Frequency of simulated ticks
sim_insts                                     1000002                       # Number of instructions simulated
sim_ops                                       1763067                       # Number of ops (including micro ops) simulated
sim_seconds                                  0.003603                       # Number of seconds simulated
sim_ticks                                  3602907000                       # Number of ticks simulated
system.cpu.Branches                            268143                       # Number of branches fetched
system.cpu.committedInsts                     1000002                       # Number of instructions committed
system.cpu.committedOps                       1763067                       # Number of ops (including micro ops) committed
system.cpu.dtb.rdAccesses                       28138                       # TLB accesses on read requests
system.cpu.dtb.rdMisses                            17                       # TLB misses on read requests
system.cpu.dtb.wrAccesses                      133575                       # TLB accesses on write requests
system.cpu.dtb.wrMisses                           233                       # TLB misses on write requests
system.cpu.idle_fraction                            0                       # Percentage of idle cycles
system.cpu.itb.rdAccesses                           0                       # TLB accesses on read requests
system.cpu.itb.rdMisses                             0                       # TLB misses on read requests
system.cpu.itb.wrAccesses                     1323466                       # TLB accesses on write requests
system.cpu.itb.wrMisses                            55                       # TLB misses on write requests
system.cpu.not_idle_fraction                        1                       # Percentage of non-idle cycles
system.cpu.numCycles                          3602896                       # number of cpu cycles simulated
system.cpu.numWorkItemsCompleted                    0                       # number of work items this cpu completed
system.cpu.numWorkItemsStarted                      0                       # number of work items this cpu started
system.cpu.num_busy_cycles                    3602896                       # Number of busy cycles
system.cpu.num_cc_register_reads              1413559                       # number of times the CC registers were read
system.cpu.num_cc_register_writes              720026                       # number of times the CC registers were written
system.cpu.num_conditional_control_insts       230507                       # number of instructions that are conditional controls
system.cpu.num_fp_alu_accesses                  49579                       # Number of float alu accesses
system.cpu.num_fp_insts                         49579                       # number of float instructions
system.cpu.num_fp_register_reads                49916                       # number of times the floating registers were read
system.cpu.num_fp_register_writes                 535                       # number of times the floating registers were written
system.cpu.num_func_calls                        3936                       # number of times a function call or return occured
system.cpu.num_idle_cycles                          0                       # Number of idle cycles
system.cpu.num_int_alu_accesses               1725244                       # Number of integer alu accesses
system.cpu.num_int_insts                      1725244                       # number of integer instructions
system.cpu.num_int_register_reads             2893034                       # number of times the integer registers were read
system.cpu.num_int_register_writes            1324928                       # number of times the integer registers were written
system.cpu.num_load_insts                       28131                       # Number of load instructions
system.cpu.num_mem_refs                        161704                       # number of memory refs
system.cpu.num_store_insts                     133573                       # Number of store instructions
system.cpu.num_vec_alu_accesses                     0                       # Number of vector alu accesses
system.cpu.num_vec_insts                            0                       # number of vector instructions
system.cpu.num_vec_register_reads                   0                       # number of times the vector registers were read
system.cpu.num_vec_register_writes                  0                       # number of times the vector registers were written
system.cpu.op_class::No_OpClass                 33401      1.89%      1.89% # Class of executed instruction
system.cpu.op_class::IntAlu                   1566516     88.85%     90.74% # Class of executed instruction
system.cpu.op_class::IntMult                     1086      0.06%     90.80% # Class of executed instruction
system.cpu.op_class::IntDiv                        21      0.00%     90.80% # Class of executed instruction
system.cpu.op_class::FloatAdd                      11      0.00%     90.80% # Class of executed instruction
system.cpu.op_class::FloatCmp                       0      0.00%     90.80% # Class of executed instruction
system.cpu.op_class::FloatCvt                       0      0.00%     90.80% # Class of executed instruction
system.cpu.op_class::FloatMult                      0      0.00%     90.80% # Class of executed instruction
system.cpu.op_class::FloatMultAcc                   0      0.00%     90.80% # Class of executed instruction
system.cpu.op_class::FloatDiv                       0      0.00%     90.80% # Class of executed instruction
system.cpu.op_class::FloatMisc                      0      0.00%     90.80% # Class of executed instruction
system.cpu.op_class::FloatSqrt                      0      0.00%     90.80% # Class of executed instruction
system.cpu.op_class::SimdAdd                        0      0.00%     90.80% # Class of executed instruction
system.cpu.op_class::SimdAddAcc                     0      0.00%     90.80% # Class of executed instruction
system.cpu.op_class::SimdAlu                      164      0.01%     90.81% # Class of executed instruction
system.cpu.op_class::SimdCmp                       14      0.00%     90.81% # Class of executed instruction
system.cpu.op_class::SimdCvt                       96      0.01%     90.82% # Class of executed instruction
system.cpu.op_class::SimdMisc                     155      0.01%     90.83% # Class of executed instruction
system.cpu.op_class::SimdMult                       0      0.00%     90.83% # Class of executed instruction
system.cpu.op_class::SimdMultAcc                    0      0.00%     90.83% # Class of executed instruction
system.cpu.op_class::SimdShift                      0      0.00%     90.83% # Class of executed instruction
system.cpu.op_class::SimdShiftAcc                   0      0.00%     90.83% # Class of executed instruction
system.cpu.op_class::SimdDiv                        0      0.00%     90.83% # Class of executed instruction
system.cpu.op_class::SimdSqrt                       0      0.00%     90.83% # Class of executed instruction
system.cpu.op_class::SimdFloatAdd                   0      0.00%     90.83% # Class of executed instruction
system.cpu.op_class::SimdFloatAlu                   0      0.00%     90.83% # Class of executed instruction
system.cpu.op_class::SimdFloatCmp                   0      0.00%     90.83% # Class of executed instruction
system.cpu.op_class::SimdFloatCvt                   0      0.00%     90.83% # Class of executed instruction
system.cpu.op_class::SimdFloatDiv                   0      0.00%     90.83% # Class of executed instruction
system.cpu.op_class::SimdFloatMisc                  0      0.00%     90.83% # Class of executed instruction
system.cpu.op_class::SimdFloatMult                  0      0.00%     90.83% # Class of executed instruction
system.cpu.op_class::SimdFloatMultAcc               0      0.00%     90.83% # Class of executed instruction
system.cpu.op_class::SimdFloatSqrt                  0      0.00%     90.83% # Class of executed instruction
system.cpu.op_class::SimdReduceAdd                  0      0.00%     90.83% # Class of executed instruction
system.cpu.op_class::SimdReduceAlu                  0      0.00%     90.83% # Class of executed instruction
system.cpu.op_class::SimdReduceCmp                  0      0.00%     90.83% # Class of executed instruction
system.cpu.op_class::SimdFloatReduceAdd             0      0.00%     90.83% # Class of executed instruction
system.cpu.op_class::SimdFloatReduceCmp             0      0.00%     90.83% # Class of executed instruction
system.cpu.op_class::SimdAes                        0      0.00%     90.83% # Class of executed instruction
system.cpu.op_class::SimdAesMix                     0      0.00%     90.83% # Class of executed instruction
system.cpu.op_class::SimdSha1Hash                   0      0.00%     90.83% # Class of executed instruction
system.cpu.op_class::SimdSha1Hash2                  0      0.00%     90.83% # Class of executed instruction
system.cpu.op_class::SimdSha256Hash                 0      0.00%     90.83% # Class of executed instruction
system.cpu.op_class::SimdSha256Hash2                0      0.00%     90.83% # Class of executed instruction
system.cpu.op_class::SimdShaSigma2                  0      0.00%     90.83% # Class of executed instruction
system.cpu.op_class::SimdShaSigma3                  0      0.00%     90.83% # Class of executed instruction
system.cpu.op_class::SimdPredAlu                    0      0.00%     90.83% # Class of executed instruction
system.cpu.op_class::MemRead                    27993      1.59%     92.42% # Class of executed instruction
system.cpu.op_class::MemWrite                   84607      4.80%     97.22% # Class of executed instruction
system.cpu.op_class::FloatMemRead                 138      0.01%     97.22% # Class of executed instruction
system.cpu.op_class::FloatMemWrite              48966      2.78%    100.00% # Class of executed instruction
system.cpu.op_class::IprAccess                      0      0.00%    100.00% # Class of executed instruction
system.cpu.op_class::InstPrefetch                   0      0.00%    100.00% # Class of executed instruction
system.cpu.op_class::total                    1763168                       # Class of executed instruction
system.cpu.workload.numSyscalls                    11                       # Number of system calls
system.dynamic_cache.flushTicks                     0                       # Ticks taken to flush
system.dynamic_cache.numFlushes                     0                       # Number of Flushes Taken
system.cache_small.demand_hits::.cpu.inst          160                       # number of demand (read+write) hits
system.cache_small.demand_hits::.cpu.data           89                       # number of demand (read+write) hits
system.cache_small.demand_hits::total             249                       # number of demand (read+write) hits
system.cache_small.overall_hits::.cpu.inst          160                       # number of overall hits
system.cache_small.overall_hits::.cpu.data           89                       # number of overall hits
system.cache_small.overall_hits::total            249                       # number of overall hits
system.cache_small.demand_misses::.cpu.inst          581                       # number of demand (read+write) misses
system.cache_small.demand_misses::.cpu.data         7801                       # number of demand (read+write) misses
system.cache_small.demand_misses::total          8382                       # number of demand (read+write) misses
system.cache_small.overall_misses::.cpu.inst          581                       # number of overall misses
system.cache_small.overall_misses::.cpu.data         7801                       # number of overall misses
system.cache_small.overall_misses::total         8382                       # number of overall misses
system.cache_small.demand_miss_latency::.cpu.inst     33885000                       # number of demand (read+write) miss cycles
system.cache_small.demand_miss_latency::.cpu.data    466495000                       # number of demand (read+write) miss cycles
system.cache_small.demand_miss_latency::total    500380000                       # number of demand (read+write) miss cycles
system.cache_small.overall_miss_latency::.cpu.inst     33885000                       # number of overall miss cycles
system.cache_small.overall_miss_latency::.cpu.data    466495000                       # number of overall miss cycles
system.cache_small.overall_miss_latency::total    500380000                       # number of overall miss cycles
system.cache_small.demand_accesses::.cpu.inst          741                       # number of demand (read+write) accesses
system.cache_small.demand_accesses::.cpu.data         7890                       # number of demand (read+write) accesses
system.cache_small.demand_accesses::total         8631                       # number of demand (read+write) accesses
system.cache_small.overall_accesses::.cpu.inst          741                       # number of overall (read+write) accesses
system.cache_small.overall_accesses::.cpu.data         7890                       # number of overall (read+write) accesses
system.cache_small.overall_accesses::total         8631                       # number of overall (read+write) accesses
system.cache_small.demand_miss_rate::.cpu.inst     0.784076                       # miss rate for demand accesses
system.cache_small.demand_miss_rate::.cpu.data     0.988720                       # miss rate for demand accesses
system.cache_small.demand_miss_rate::total     0.971151                       # miss rate for demand accesses
system.cache_small.overall_miss_rate::.cpu.inst     0.784076                       # miss rate for overall accesses
system.cache_small.overall_miss_rate::.cpu.data     0.988720                       # miss rate for overall accesses
system.cache_small.overall_miss_rate::total     0.971151                       # miss rate for overall accesses
system.cache_small.demand_avg_miss_latency::.cpu.inst 58321.858864                       # average overall miss latency
system.cache_small.demand_avg_miss_latency::.cpu.data 59799.384694                       # average overall miss latency
system.cache_small.demand_avg_miss_latency::total 59696.969697                       # average overall miss latency
system.cache_small.overall_avg_miss_latency::.cpu.inst 58321.858864                       # average overall miss latency
system.cache_small.overall_avg_miss_latency::.cpu.data 59799.384694                       # average overall miss latency
system.cache_small.overall_avg_miss_latency::total 59696.969697                       # average overall miss latency
system.cache_small.blocked_cycles::no_mshrs            0                       # number of cycles access was blocked
system.cache_small.blocked_cycles::no_targets            0                       # number of cycles access was blocked
system.cache_small.blocked::no_mshrs                0                       # number of cycles access was blocked
system.cache_small.blocked::no_targets              0                       # number of cycles access was blocked
system.cache_small.avg_blocked_cycles::no_mshrs          nan                       # average number of cycles each access was blocked
system.cache_small.avg_blocked_cycles::no_targets          nan                       # average number of cycles each access was blocked
system.cache_small.writebacks::.writebacks         3606                       # number of writebacks
system.cache_small.writebacks::total             3606                       # number of writebacks
system.cache_small.demand_mshr_misses::.cpu.inst          581                       # number of demand (read+write) MSHR misses
system.cache_small.demand_mshr_misses::.cpu.data         7801                       # number of demand (read+write) MSHR misses
system.cache_small.demand_mshr_misses::total         8382                       # number of demand (read+write) MSHR misses
system.cache_small.overall_mshr_misses::.cpu.inst          581                       # number of overall MSHR misses
system.cache_small.overall_mshr_misses::.cpu.data         7801                       # number of overall MSHR misses
system.cache_small.overall_mshr_misses::total         8382                       # number of overall MSHR misses
system.cache_small.demand_mshr_miss_latency::.cpu.inst     32723000                       # number of demand (read+write) MSHR miss cycles
system.cache_small.demand_mshr_miss_latency::.cpu.data    450893000                       # number of demand (read+write) MSHR miss cycles
system.cache_small.demand_mshr_miss_latency::total    483616000                       # number of demand (read+write) MSHR miss cycles
system.cache_small.overall_mshr_miss_latency::.cpu.inst     32723000                       # number of overall MSHR miss cycles
system.cache_small.overall_mshr_miss_latency::.cpu.data    450893000                       # number of overall MSHR miss cycles
system.cache_small.overall_mshr_miss_latency::total    483616000                       # number of overall MSHR miss cycles
system.cache_small.demand_mshr_miss_rate::.cpu.inst     0.784076                       # mshr miss rate for demand accesses
system.cache_small.demand_mshr_miss_rate::.cpu.data     0.988720                       # mshr miss rate for demand accesses
system.cache_small.demand_mshr_miss_rate::total     0.971151                       # mshr miss rate for demand accesses
system.cache_small.overall_mshr_miss_rate::.cpu.inst     0.784076                       # mshr miss rate for overall accesses
system.cache_small.overall_mshr_miss_rate::.cpu.data     0.988720                       # mshr miss rate for overall accesses
system.cache_small.overall_mshr_miss_rate::total     0.971151                       # mshr miss rate for overall accesses
system.cache_small.demand_avg_mshr_miss_latency::.cpu.inst 56321.858864                       # average overall mshr miss latency
system.cache_small.demand_avg_mshr_miss_latency::.cpu.data 57799.384694                       # average overall mshr miss latency
system.cache_small.demand_avg_mshr_miss_latency::total 57696.969697                       # average overall mshr miss latency
system.cache_small.overall_avg_mshr_miss_latency::.cpu.inst 56321.858864                       # average overall mshr miss latency
system.cache_small.overall_avg_mshr_miss_latency::.cpu.data 57799.384694                       # average overall mshr miss latency
system.cache_small.overall_avg_mshr_miss_latency::total 57696.969697                       # average overall mshr miss latency
system.cache_small.replacements                  4347                       # number of replacements
system.cache_small.ReadReq_hits::.cpu.inst          160                       # number of ReadReq hits
system.cache_small.ReadReq_hits::.cpu.data           89                       # number of ReadReq hits
system.cache_small.ReadReq_hits::total            249                       # number of ReadReq hits
system.cache_small.ReadReq_misses::.cpu.inst          581                       # number of ReadReq misses
system.cache_small.ReadReq_misses::.cpu.data         7801                       # number of ReadReq misses
system.cache_small.ReadReq_misses::total         8382                       # number of ReadReq misses
system.cache_small.ReadReq_miss_latency::.cpu.inst     33885000                       # number of ReadReq miss cycles
system.cache_small.ReadReq_miss_latency::.cpu.data    466495000                       # number of ReadReq miss cycles
system.cache_small.ReadReq_miss_latency::total    500380000                       # number of ReadReq miss cycles
system.cache_small.ReadReq_accesses::.cpu.inst          741                       # number of ReadReq accesses(hits+misses)
system.cache_small.ReadReq_accesses::.cpu.data         7890                       # number of ReadReq accesses(hits+misses)
system.cache_small.ReadReq_accesses::total         8631                       # number of ReadReq accesses(hits+misses)
system.cache_small.ReadReq_miss_rate::.cpu.inst     0.784076                       # miss rate for ReadReq accesses
system.cache_small.ReadReq_miss_rate::.cpu.data     0.988720                       # miss rate for ReadReq accesses
system.cache_small.ReadReq_miss_rate::total     0.971151                       # miss rate for ReadReq accesses
system.cache_small.ReadReq_avg_miss_latency::.cpu.inst 58321.858864                       # average ReadReq miss latency
system.cache_small.ReadReq_avg_miss_latency::.cpu.data 59799.384694                       # average ReadReq miss latency
system.cache_small.ReadReq_avg_miss_latency::total 59696.969697                       # average ReadReq miss latency
system.cache_small.ReadReq_mshr_misses::.cpu.inst          581                       # number of ReadReq MSHR misses
system.cache_small.ReadReq_mshr_misses::.cpu.data         7801                       # number of ReadReq MSHR misses
system.cache_small.ReadReq_mshr_misses::total         8382                       # number of ReadReq MSHR misses
system.cache_small.ReadReq_mshr_miss_latency::.cpu.inst     32723000                       # number of ReadReq MSHR miss cycles
system.cache_small.ReadReq_mshr_miss_latency::.cpu.data    450893000                       # number of ReadReq MSHR miss cycles
system.cache_small.ReadReq_mshr_miss_latency::total    483616000                       # number of ReadReq MSHR miss cycles
system.cache_small.ReadReq_mshr_miss_rate::.cpu.inst     0.784076                       # mshr miss rate for ReadReq accesses
system.cache_small.ReadReq_mshr_miss_rate::.cpu.data     0.988720                       # mshr miss rate for ReadReq accesses
system.cache_small.ReadReq_mshr_miss_rate::total     0.971151                       # mshr miss rate for ReadReq accesses
system.cache_small.ReadReq_avg_mshr_miss_latency::.cpu.inst 56321.858864                       # average ReadReq mshr miss latency
system.cache_small.ReadReq_avg_mshr_miss_latency::.cpu.data 57799.384694                       # average ReadReq mshr miss latency
system.cache_small.ReadReq_avg_mshr_miss_latency::total 57696.969697                       # average ReadReq mshr miss latency
system.cache_small.WritebackDirty_hits::.writebacks         7225                       # number of WritebackDirty hits
system.cache_small.WritebackDirty_hits::total         7225                       # number of WritebackDirty hits
system.cache_small.WritebackDirty_accesses::.writebacks         7225                       # number of WritebackDirty accesses(hits+misses)
system.cache_small.WritebackDirty_accesses::total         7225                       # number of WritebackDirty accesses(hits+misses)
system.cache_small.power_state.pwrStateResidencyTicks::UNDEFINED   3602907000                       # Cumulative time (in ticks) in various power states
system.cache_small.tags.tagsinuse         1559.197187                       # Cycle average of tags in use
system.cache_small.tags.total_refs               8176                       # Total number of references to valid blocks.
system.cache_small.tags.sampled_refs             4347                       # Sample count of references to valid blocks.
system.cache_small.tags.avg_refs             1.880837                       # Average number of references to valid blocks.
system.cache_small.tags.warmup_cycle            76000                       # Cycle when the warmup percentage was hit.
system.cache_small.tags.occ_blocks::.writebacks    17.962470                       # Average occupied blocks per requestor
system.cache_small.tags.occ_blocks::.cpu.inst   248.321643                       # Average occupied blocks per requestor
system.cache_small.tags.occ_blocks::.cpu.data  1292.913074                       # Average occupied blocks per requestor
system.cache_small.tags.occ_percent::.writebacks     0.004385                       # Average percentage of cache occupancy
system.cache_small.tags.occ_percent::.cpu.inst     0.060625                       # Average percentage of cache occupancy
system.cache_small.tags.occ_percent::.cpu.data     0.315653                       # Average percentage of cache occupancy
system.cache_small.tags.occ_percent::total     0.380663                       # Average percentage of cache occupancy
system.cache_small.tags.occ_task_id_blocks::1024         4096                       # Occupied blocks per task id
system.cache_small.tags.age_task_id_blocks_1024::0           90                       # Occupied blocks per task id
system.cache_small.tags.age_task_id_blocks_1024::1          795                       # Occupied blocks per task id
system.cache_small.tags.age_task_id_blocks_1024::2         3211                       # Occupied blocks per task id
system.cache_small.tags.occ_task_id_percent::1024            1                       # Percentage of cache occupancy per task id
system.cache_small.tags.tag_accesses            24299                       # Number of tag accesses
system.cache_small.tags.data_accesses           24299                       # Number of data accesses
system.cache_small.tags.power_state.pwrStateResidencyTicks::UNDEFINED   3602907000                       # Cumulative time (in ticks) in various power states
system.icache.demand_hits::.cpu.inst          1322713                       # number of demand (read+write) hits
system.icache.demand_hits::total              1322713                       # number of demand (read+write) hits
system.icache.overall_hits::.cpu.inst         1322713                       # number of overall hits
system.icache.overall_hits::total             1322713                       # number of overall hits
system.icache.demand_misses::.cpu.inst            753                       # number of demand (read+write) misses
system.icache.demand_misses::total                753                       # number of demand (read+write) misses
system.icache.overall_misses::.cpu.inst           753                       # number of overall misses
system.icache.overall_misses::total               753                       # number of overall misses
system.icache.demand_miss_latency::.cpu.inst     46999000                       # number of demand (read+write) miss cycles
system.icache.demand_miss_latency::total     46999000                       # number of demand (read+write) miss cycles
system.icache.overall_miss_latency::.cpu.inst     46999000                       # number of overall miss cycles
system.icache.overall_miss_latency::total     46999000                       # number of overall miss cycles
system.icache.demand_accesses::.cpu.inst      1323466                       # number of demand (read+write) accesses
system.icache.demand_accesses::total          1323466                       # number of demand (read+write) accesses
system.icache.overall_accesses::.cpu.inst      1323466                       # number of overall (read+write) accesses
system.icache.overall_accesses::total         1323466                       # number of overall (read+write) accesses
system.icache.demand_miss_rate::.cpu.inst     0.000569                       # miss rate for demand accesses
system.icache.demand_miss_rate::total        0.000569                       # miss rate for demand accesses
system.icache.overall_miss_rate::.cpu.inst     0.000569                       # miss rate for overall accesses
system.icache.overall_miss_rate::total       0.000569                       # miss rate for overall accesses
system.icache.demand_avg_miss_latency::.cpu.inst 62415.670651                       # average overall miss latency
system.icache.demand_avg_miss_latency::total 62415.670651                       # average overall miss latency
system.icache.overall_avg_miss_latency::.cpu.inst 62415.670651                       # average overall miss latency
system.icache.overall_avg_miss_latency::total 62415.670651                       # average overall miss latency
system.icache.blocked_cycles::no_mshrs              0                       # number of cycles access was blocked
system.icache.blocked_cycles::no_targets            0                       # number of cycles access was blocked
system.icache.blocked::no_mshrs                     0                       # number of cycles access was blocked
system.icache.blocked::no_targets                   0                       # number of cycles access was blocked
system.icache.avg_blocked_cycles::no_mshrs          nan                       # average number of cycles each access was blocked
system.icache.avg_blocked_cycles::no_targets          nan                       # average number of cycles each access was blocked
system.icache.demand_mshr_misses::.cpu.inst          753                       # number of demand (read+write) MSHR misses
system.icache.demand_mshr_misses::total           753                       # number of demand (read+write) MSHR misses
system.icache.overall_mshr_misses::.cpu.inst          753                       # number of overall MSHR misses
system.icache.overall_mshr_misses::total          753                       # number of overall MSHR misses
system.icache.demand_mshr_miss_latency::.cpu.inst     45493000                       # number of demand (read+write) MSHR miss cycles
system.icache.demand_mshr_miss_latency::total     45493000                       # number of demand (read+write) MSHR miss cycles
system.icache.overall_mshr_miss_latency::.cpu.inst     45493000                       # number of overall MSHR miss cycles
system.icache.overall_mshr_miss_latency::total     45493000                       # number of overall MSHR miss cycles
system.icache.demand_mshr_miss_rate::.cpu.inst     0.000569                       # mshr miss rate for demand accesses
system.icache.demand_mshr_miss_rate::total     0.000569                       # mshr miss rate for demand accesses
system.icache.overall_mshr_miss_rate::.cpu.inst     0.000569                       # mshr miss rate for overall accesses
system.icache.overall_mshr_miss_rate::total     0.000569                       # mshr miss rate for overall accesses
system.icache.demand_avg_mshr_miss_latency::.cpu.inst 60415.670651                       # average overall mshr miss latency
system.icache.demand_avg_mshr_miss_latency::total 60415.670651                       # average overall mshr miss latency
system.icache.overall_avg_mshr_miss_latency::.cpu.inst 60415.670651                       # average overall mshr miss latency
system.icache.overall_avg_mshr_miss_latency::total 60415.670651                       # average overall mshr miss latency
system.icache.replacements                        513                       # number of replacements
system.icache.ReadReq_hits::.cpu.inst         1322713                       # number of ReadReq hits
system.icache.ReadReq_hits::total             1322713                       # number of ReadReq hits
system.icache.ReadReq_misses::.cpu.inst           753                       # number of ReadReq misses
system.icache.ReadReq_misses::total               753                       # number of ReadReq misses
system.icache.ReadReq_miss_latency::.cpu.inst     46999000                       # number of ReadReq miss cycles
system.icache.ReadReq_miss_latency::total     46999000                       # number of ReadReq miss cycles
system.icache.ReadReq_accesses::.cpu.inst      1323466                       # number of ReadReq accesses(hits+misses)
system.icache.ReadReq_accesses::total         1323466                       # number of ReadReq accesses(hits+misses)
system.icache.ReadReq_miss_rate::.cpu.inst     0.000569                       # miss rate for ReadReq accesses
system.icache.ReadReq_miss_rate::total       0.000569                       # miss rate for ReadReq accesses
system.icache.ReadReq_avg_miss_latency::.cpu.inst 62415.670651                       # average ReadReq miss latency
system.icache.ReadReq_avg_miss_latency::total 62415.670651                       # average ReadReq miss latency
system.icache.ReadReq_mshr_misses::.cpu.inst          753                       # number of ReadReq MSHR misses
system.icache.ReadReq_mshr_misses::total          753                       # number of ReadReq MSHR misses
system.icache.ReadReq_mshr_miss_latency::.cpu.inst     45493000                       # number of ReadReq MSHR miss cycles
system.icache.ReadReq_mshr_miss_latency::total     45493000                       # number of ReadReq MSHR miss cycles
system.icache.ReadReq_mshr_miss_rate::.cpu.inst     0.000569                       # mshr miss rate for ReadReq accesses
system.icache.ReadReq_mshr_miss_rate::total     0.000569                       # mshr miss rate for ReadReq accesses
system.icache.ReadReq_avg_mshr_miss_latency::.cpu.inst 60415.670651                       # average ReadReq mshr miss latency
system.icache.ReadReq_avg_mshr_miss_latency::total 60415.670651                       # average ReadReq mshr miss latency
system.icache.power_state.pwrStateResidencyTicks::UNDEFINED   3602907000                       # Cumulative time (in ticks) in various power states
system.icache.tags.tagsinuse               233.275994                       # Cycle average of tags in use
system.icache.tags.total_refs                  117197                       # Total number of references to valid blocks.
system.icache.tags.sampled_refs                   513                       # Sample count of references to valid blocks.
system.icache.tags.avg_refs                228.454191                       # Average number of references to valid blocks.
system.icache.tags.warmup_cycle                 82000                       # Cycle when the warmup percentage was hit.
system.icache.tags.occ_blocks::.cpu.inst   233.275994                       # Average occupied blocks per requestor
system.icache.tags.occ_percent::.cpu.inst     0.911234                       # Average percentage of cache occupancy
system.icache.tags.occ_percent::total        0.911234                       # Average percentage of cache occupancy
system.icache.tags.occ_task_id_blocks::1024          240                       # Occupied blocks per task id
system.icache.tags.age_task_id_blocks_1024::2           71                       # Occupied blocks per task id
system.icache.tags.age_task_id_blocks_1024::3          169                       # Occupied blocks per task id
system.icache.tags.occ_task_id_percent::1024     0.937500                       # Percentage of cache occupancy per task id
system.icache.tags.tag_accesses               1324219                       # Number of tag accesses
system.icache.tags.data_accesses              1324219                       # Number of data accesses
system.icache.tags.power_state.pwrStateResidencyTicks::UNDEFINED   3602907000                       # Cumulative time (in ticks) in various power states
system.membus.trans_dist::ReadReq                8382                       # Transaction distribution
system.membus.trans_dist::ReadResp               8382                       # Transaction distribution
system.membus.trans_dist::WritebackDirty         3606                       # Transaction distribution
system.membus.pkt_count_system.cache_small.mem_side::system.mem_ctrl.port        20370                       # Packet count per connected master and slave (bytes)
system.membus.pkt_count_system.cache_small.mem_side::total        20370                       # Packet count per connected master and slave (bytes)
system.membus.pkt_count::total                  20370                       # Packet count per connected master and slave (bytes)
system.membus.pkt_size_system.cache_small.mem_side::system.mem_ctrl.port       767232                       # Cumulative packet size per connected master and slave (bytes)
system.membus.pkt_size_system.cache_small.mem_side::total       767232                       # Cumulative packet size per connected master and slave (bytes)
system.membus.pkt_size::total                  767232                       # Cumulative packet size per connected master and slave (bytes)
system.membus.reqLayer2.occupancy            26412000                       # Layer occupancy (ticks)
system.membus.reqLayer2.utilization               0.7                       # Layer utilization (%)
system.membus.respLayer1.occupancy           44243750                       # Layer occupancy (ticks)
system.membus.respLayer1.utilization              1.2                       # Layer utilization (%)
system.membus.power_state.pwrStateResidencyTicks::UNDEFINED   3602907000                       # Cumulative time (in ticks) in various power states
system.mem_ctrl.bytes_read::.cpu.inst           37184                       # Number of bytes read from this memory
system.mem_ctrl.bytes_read::.cpu.data          499264                       # Number of bytes read from this memory
system.mem_ctrl.bytes_read::total              536448                       # Number of bytes read from this memory
system.mem_ctrl.bytes_inst_read::.cpu.inst        37184                       # Number of instructions bytes read from this memory
system.mem_ctrl.bytes_inst_read::total          37184                       # Number of instructions bytes read from this memory
system.mem_ctrl.bytes_written::.writebacks       230784                       # Number of bytes written to this memory
system.mem_ctrl.bytes_written::total           230784                       # Number of bytes written to this memory
system.mem_ctrl.num_reads::.cpu.inst              581                       # Number of read requests responded to by this memory
system.mem_ctrl.num_reads::.cpu.data             7801                       # Number of read requests responded to by this memory
system.mem_ctrl.num_reads::total                 8382                       # Number of read requests responded to by this memory
system.mem_ctrl.num_writes::.writebacks          3606                       # Number of write requests responded to by this memory
system.mem_ctrl.num_writes::total                3606                       # Number of write requests responded to by this memory
system.mem_ctrl.bw_read::.cpu.inst           10320555                       # Total read bandwidth from this memory (bytes/s)
system.mem_ctrl.bw_read::.cpu.data          138572547                       # Total read bandwidth from this memory (bytes/s)
system.mem_ctrl.bw_read::total              148893102                       # Total read bandwidth from this memory (bytes/s)
system.mem_ctrl.bw_inst_read::.cpu.inst      10320555                       # Instruction read bandwidth from this memory (bytes/s)
system.mem_ctrl.bw_inst_read::total          10320555                       # Instruction read bandwidth from this memory (bytes/s)
system.mem_ctrl.bw_write::.writebacks        64054942                       # Write bandwidth from this memory (bytes/s)
system.mem_ctrl.bw_write::total              64054942                       # Write bandwidth from this memory (bytes/s)
system.mem_ctrl.bw_total::.writebacks        64054942                       # Total bandwidth to/from this memory (bytes/s)
system.mem_ctrl.bw_total::.cpu.inst          10320555                       # Total bandwidth to/from this memory (bytes/s)
system.mem_ctrl.bw_total::.cpu.data         138572547                       # Total bandwidth to/from this memory (bytes/s)
system.mem_ctrl.bw_total::total             212948044                       # Total bandwidth to/from this memory (bytes/s)
system.mem_ctrl.avgPriority_.writebacks::samples      3606.00                       # Average QoS priority value for accepted requests
system.mem_ctrl.avgPriority_.cpu.inst::samples       581.00                       # Average QoS priority value for accepted requests
system.mem_ctrl.avgPriority_.cpu.data::samples      7800.00                       # Average QoS priority value for accepted requests
system.mem_ctrl.priorityMinLatency       0.000000018750                       # per QoS priority minimum request to response latency (s)
system.mem_ctrl.priorityMaxLatency       0.006003858500                       # per QoS priority maximum request to response latency (s)
system.mem_ctrl.numReadWriteTurnArounds           223                       # Number of turnarounds from READ to WRITE
system.mem_ctrl.numWriteReadTurnArounds           223                       # Number of turnarounds from WRITE to READ
system.mem_ctrl.numStayReadState                21061                       # Number of times bus staying in READ state
system.mem_ctrl.numStayWriteState                3363                       # Number of times bus staying in WRITE state
system.mem_ctrl.readReqs                         8382                       # Number of read requests accepted
system.mem_ctrl.writeReqs                        3606                       # Number of write requests accepted
system.mem_ctrl.readBursts                       8382                       # Number of DRAM read bursts, including those serviced by the write queue
system.mem_ctrl.writeBursts                      3606                       # Number of DRAM write bursts, including those merged in the write queue
system.mem_ctrl.servicedByWrQ                       1                       # Number of DRAM read bursts serviced by the write queue
system.mem_ctrl.mergedWrBursts                      0                       # Number of DRAM write bursts merged with an existing one
system.mem_ctrl.neitherReadNorWriteReqs             0                       # Number of requests that are neither read nor write
system.mem_ctrl.perBankRdBursts::0                559                       # Per bank write bursts
system.mem_ctrl.perBankRdBursts::1                503                       # Per bank write bursts
system.mem_ctrl.perBankRdBursts::2                448                       # Per bank write bursts
system.mem_ctrl.perBankRdBursts::3                407                       # Per bank write bursts
system.mem_ctrl.perBankRdBursts::4                362                       # Per bank write bursts
system.mem_ctrl.perBankRdBursts::5                475                       # Per bank write bursts
system.mem_ctrl.perBankRdBursts::6                524                       # Per bank write bursts
system.mem_ctrl.perBankRdBursts::7                520                       # Per bank write bursts
system.mem_ctrl.perBankRdBursts::8                636                       # Per bank write bursts
system.mem_ctrl.perBankRdBursts::9                552                       # Per bank write bursts
system.mem_ctrl.perBankRdBursts::10               572                       # Per bank write bursts
system.mem_ctrl.perBankRdBursts::11               538                       # Per bank write bursts
system.mem_ctrl.perBankRdBursts::12               524                       # Per bank write bursts
system.mem_ctrl.perBankRdBursts::13               532                       # Per bank write bursts
system.mem_ctrl.perBankRdBursts::14               570                       # Per bank write bursts
system.mem_ctrl.perBankRdBursts::15               659                       # Per bank write bursts
system.mem_ctrl.perBankWrBursts::0                232                       # Per bank write bursts
system.mem_ctrl.perBankWrBursts::1                132                       # Per bank write bursts
system.mem_ctrl.perBankWrBursts::2                163                       # Per bank write bursts
system.mem_ctrl.perBankWrBursts::3                116                       # Per bank write bursts
system.mem_ctrl.perBankWrBursts::4                 68                       # Per bank write bursts
system.mem_ctrl.perBankWrBursts::5                204                       # Per bank write bursts
system.mem_ctrl.perBankWrBursts::6                256                       # Per bank write bursts
system.mem_ctrl.perBankWrBursts::7                256                       # Per bank write bursts
system.mem_ctrl.perBankWrBursts::8                256                       # Per bank write bursts
system.mem_ctrl.perBankWrBursts::9                260                       # Per bank write bursts
system.mem_ctrl.perBankWrBursts::10               256                       # Per bank write bursts
system.mem_ctrl.perBankWrBursts::11               256                       # Per bank write bursts
system.mem_ctrl.perBankWrBursts::12               256                       # Per bank write bursts
system.mem_ctrl.perBankWrBursts::13               265                       # Per bank write bursts
system.mem_ctrl.perBankWrBursts::14               258                       # Per bank write bursts
system.mem_ctrl.perBankWrBursts::15               340                       # Per bank write bursts
system.mem_ctrl.avgRdQLen                        1.00                       # Average read queue length when enqueuing
system.mem_ctrl.avgWrQLen                        9.23                       # Average write queue length when enqueuing
system.mem_ctrl.totQLat                      64306500                       # Total ticks spent queuing
system.mem_ctrl.totBusLat                    41905000                       # Total ticks spent in databus transfers
system.mem_ctrl.totMemAccLat                221450250                       # Total ticks spent from burst creation until serviced by the DRAM
system.mem_ctrl.avgQLat                       7672.89                       # Average queueing delay per DRAM burst
system.mem_ctrl.avgBusLat                     5000.00                       # Average bus latency per DRAM burst
system.mem_ctrl.avgMemAccLat                 26422.89                       # Average memory access latency per DRAM burst
system.mem_ctrl.numRdRetry                          0                       # Number of times read queue was full causing retry
system.mem_ctrl.numWrRetry                          0                       # Number of times write queue was full causing retry
system.mem_ctrl.readRowHits                      7310                       # Number of row buffer hits during reads
system.mem_ctrl.writeRowHits                     3301                       # Number of row buffer hits during writes
system.mem_ctrl.readRowHitRate                  87.22                       # Row buffer hit rate for reads
system.mem_ctrl.writeRowHitRate                 91.54                       # Row buffer hit rate for writes
system.mem_ctrl.readPktSize::0                      0                       # Read request sizes (log2)
system.mem_ctrl.readPktSize::1                      0                       # Read request sizes (log2)
system.mem_ctrl.readPktSize::2                      0                       # Read request sizes (log2)
system.mem_ctrl.readPktSize::3                      0                       # Read request sizes (log2)
system.mem_ctrl.readPktSize::4                      0                       # Read request sizes (log2)
system.mem_ctrl.readPktSize::5                      0                       # Read request sizes (log2)
system.mem_ctrl.readPktSize::6                   8382                       # Read request sizes (log2)
system.mem_ctrl.writePktSize::0                     0                       # Write request sizes (log2)
system.mem_ctrl.writePktSize::1                     0                       # Write request sizes (log2)
system.mem_ctrl.writePktSize::2                     0                       # Write request sizes (log2)
system.mem_ctrl.writePktSize::3                     0                       # Write request sizes (log2)
system.mem_ctrl.writePktSize::4                     0                       # Write request sizes (log2)
system.mem_ctrl.writePktSize::5                     0                       # Write request sizes (log2)
system.mem_ctrl.writePktSize::6                  3606                       # Write request sizes (log2)
system.mem_ctrl.rdQLenPdf::0                     8381                       # What read queue length does an incoming req see
system.mem_ctrl.rdQLenPdf::1                        0                       # What read queue length does an incoming req see
system.mem_ctrl.rdQLenPdf::2                        0                       # What read queue length does an incoming req see
system.mem_ctrl.rdQLenPdf::3                        0                       # What read queue length does an incoming req see
system.mem_ctrl.rdQLenPdf::4                        0                       # What read queue length does an incoming req see
system.mem_ctrl.rdQLenPdf::5                        0                       # What read queue length does an incoming req see
system.mem_ctrl.rdQLenPdf::6                        0                       # What read queue length does an incoming req see
system.mem_ctrl.rdQLenPdf::7                        0                       # What read queue length does an incoming req see
system.mem_ctrl.rdQLenPdf::8                        0                       # What read queue length does an incoming req see
system.mem_ctrl.rdQLenPdf::9                        0                       # What read queue length does an incoming req see
system.mem_ctrl.rdQLenPdf::10                       0                       # What read queue length does an incoming req see
system.mem_ctrl.rdQLenPdf::11                       0                       # What read queue length does an incoming req see
system.mem_ctrl.rdQLenPdf::12                       0                       # What read queue length does an incoming req see
system.mem_ctrl.rdQLenPdf::13                       0                       # What read queue length does an incoming req see
system.mem_ctrl.rdQLenPdf::14                       0                       # What read queue length does an incoming req see
system.mem_ctrl.rdQLenPdf::15                       0                       # What read queue length does an incoming req see
system.mem_ctrl.rdQLenPdf::16                       0                       # What read queue length does an incoming req see
system.mem_ctrl.rdQLenPdf::17                       0                       # What read queue length does an incoming req see
system.mem_ctrl.rdQLenPdf::18                       0                       # What read queue length does an incoming req see
system.mem_ctrl.rdQLenPdf::19                       0                       # What read queue length does an incoming req see
system.mem_ctrl.rdQLenPdf::20                       0                       # What read queue length does an incoming req see
system.mem_ctrl.rdQLenPdf::21                       0                       # What read queue length does an incoming req see
system.mem_ctrl.rdQLenPdf::22                       0                       # What read queue length does an incoming req see
system.mem_ctrl.rdQLenPdf::23                       0                       # What read queue length does an incoming req see
system.mem_ctrl.rdQLenPdf::24                       0                       # What read queue length does an incoming req see
system.mem_ctrl.rdQLenPdf::25                       0                       # What read queue length does an incoming req see
system.mem_ctrl.rdQLenPdf::26                       0                       # What read queue length does an incoming req see
system.mem_ctrl.rdQLenPdf::27                       0                       # What read queue length does an incoming req see
system.mem_ctrl.rdQLenPdf::28                       0                       # What read queue length does an incoming req see
system.mem_ctrl.rdQLenPdf::29                       0                       # What read queue length does an incoming req see
system.mem_ctrl.rdQLenPdf::30                       0                       # What read queue length does an incoming req see
system.mem_ctrl.rdQLenPdf::31                       0                       # What read queue length does an incoming req see
system.mem_ctrl.wrQLenPdf::0                        1                       # What write queue length does an incoming req see
system.mem_ctrl.wrQLenPdf::1                        1                       # What write queue length does an incoming req see
system.mem_ctrl.wrQLenPdf::2                        1                       # What write queue length does an incoming req see
system.mem_ctrl.wrQLenPdf::3                        1                       # What write queue length does an incoming req see
system.mem_ctrl.wrQLenPdf::4                        1                       # What write queue length does an incoming req see
system.mem_ctrl.wrQLenPdf::5                        1                       # What write queue length does an incoming req see
system.mem_ctrl.wrQLenPdf::6                        1                       # What write queue length does an incoming req see
system.mem_ctrl.wrQLenPdf::7                        1                       # What write queue length does an incoming req see
system.mem_ctrl.wrQLenPdf::8                        1                       # What write queue length does an incoming req see
system.mem_ctrl.wrQLenPdf::9                        1                       # What write queue length does an incoming req see
system.mem_ctrl.wrQLenPdf::10                       1                       # What write queue length does an incoming req see
system.mem_ctrl.wrQLenPdf::11                       1                       # What write queue length does an incoming req see
system.mem_ctrl.wrQLenPdf::12                       1                       # What write queue length does an incoming req see
system.mem_ctrl.wrQLenPdf::13                       1                       # What write queue length does an incoming req see
system.mem_ctrl.wrQLenPdf::14                       1                       # What write queue length does an incoming req see
system.mem_ctrl.wrQLenPdf::15                       4                       # What write queue length does an incoming req see
system.mem_ctrl.wrQLenPdf::16                       4                       # What write queue length does an incoming req see
system.mem_ctrl.wrQLenPdf::17                     224                       # What write queue length does an incoming req see
system.mem_ctrl.wrQLenPdf::18                     224                       # What write queue length does an incoming req see
system.mem_ctrl.wrQLenPdf::19                     224                       # What write queue length does an incoming req see
system.mem_ctrl.wrQLenPdf::20                     224                       # What write queue length does an incoming req see
system.mem_ctrl.wrQLenPdf::21                     224                       # What write queue length does an incoming req see
system.mem_ctrl.wrQLenPdf::22                     224                       # What write queue length does an incoming req see
system.mem_ctrl.wrQLenPdf::23                     224                       # What write queue length does an incoming req see
system.mem_ctrl.wrQLenPdf::24                     224                       # What write queue length does an incoming req see
system.mem_ctrl.wrQLenPdf::25                     224                       # What write queue length does an incoming req see
system.mem_ctrl.wrQLenPdf::26                     224                       # What write queue length does an incoming req see
system.mem_ctrl.wrQLenPdf::27                     224                       # What write queue length does an incoming req see
system.mem_ctrl.wrQLenPdf::28                     224                       # What write queue length does an incoming req see
system.mem_ctrl.wrQLenPdf::29                     224                       # What write queue length does an incoming req see
system.mem_ctrl.wrQLenPdf::30                     224                       # What write queue length does an incoming req see
system.mem_ctrl.wrQLenPdf::31                     224                       # What write queue length does an incoming req see
system.mem_ctrl.wrQLenPdf::32                     223                       # What write queue length does an incoming req see
system.mem_ctrl.wrQLenPdf::33                       0                       # What write queue length does an incoming req see
system.mem_ctrl.wrQLenPdf::34                       0                       # What write queue length does an incoming req see
system.mem_ctrl.wrQLenPdf::35                       0                       # What write queue length does an incoming req see
system.mem_ctrl.wrQLenPdf::36                       0                       # What write queue length does an incoming req see
system.mem_ctrl.wrQLenPdf::37                       0                       # What write queue length does an incoming req see
system.mem_ctrl.wrQLenPdf::38                       0                       # What write queue length does an incoming req see
system.mem_ctrl.wrQLenPdf::39                       0                       # What write queue length does an incoming req see
system.mem_ctrl.wrQLenPdf::40                       0                       # What write queue length does an incoming req see
system.mem_ctrl.wrQLenPdf::41                       0                       # What write queue length does an incoming req see
system.mem_ctrl.wrQLenPdf::42                       0                       # What write queue length does an incoming req see
system.mem_ctrl.wrQLenPdf::43                       0                       # What write queue length does an incoming req see
system.mem_ctrl.wrQLenPdf::44                       0                       # What write queue length does an incoming req see
system.mem_ctrl.wrQLenPdf::45                       0                       # What write queue length does an incoming req see
system.mem_ctrl.wrQLenPdf::46                       0                       # What write queue length does an incoming req see
system.mem_ctrl.wrQLenPdf::47                       0                       # What write queue length does an incoming req see
system.mem_ctrl.wrQLenPdf::48                       0                       # What write queue length does an incoming req see
system.mem_ctrl.wrQLenPdf::49                       0                       # What write queue length does an incoming req see
system.mem_ctrl.wrQLenPdf::50                       0                       # What write queue length does an incoming req see
system.mem_ctrl.wrQLenPdf::51                       0                       # What write queue length does an incoming req see
system.mem_ctrl.wrQLenPdf::52                       0                       # What write queue length does an incoming req see
system.mem_ctrl.wrQLenPdf::53                       0                       # What write queue length does an incoming req see
system.mem_ctrl.wrQLenPdf::54                       0                       # What write queue length does an incoming req see
system.mem_ctrl.wrQLenPdf::55                       0                       # What write queue length does an incoming req see
system.mem_ctrl.wrQLenPdf::56                       0                       # What write queue length does an incoming req see
system.mem_ctrl.wrQLenPdf::57                       0                       # What write queue length does an incoming req see
system.mem_ctrl.wrQLenPdf::58                       0                       # What write queue length does an incoming req see
system.mem_ctrl.wrQLenPdf::59                       0                       # What write queue length does an incoming req see
system.mem_ctrl.wrQLenPdf::60                       0                       # What write queue length does an incoming req see
system.mem_ctrl.wrQLenPdf::61                       0                       # What write queue length does an incoming req see
system.mem_ctrl.wrQLenPdf::62                       0                       # What write queue length does an incoming req see
system.mem_ctrl.wrQLenPdf::63                       0                       # What write queue length does an incoming req see
system.mem_ctrl.bytesPerActivate::samples         1342                       # Bytes accessed per row activation
system.mem_ctrl.bytesPerActivate::mean     569.418778                       # Bytes accessed per row activation
system.mem_ctrl.bytesPerActivate::gmean    407.331379                       # Bytes accessed per row activation
system.mem_ctrl.bytesPerActivate::stdev    387.522730                       # Bytes accessed per row activation
system.mem_ctrl.bytesPerActivate::0-127           100      7.45%      7.45% # Bytes accessed per row activation
system.mem_ctrl.bytesPerActivate::128-255          276     20.57%     28.02% # Bytes accessed per row activation
system.mem_ctrl.bytesPerActivate::256-383          239     17.81%     45.83% # Bytes accessed per row activation
system.mem_ctrl.bytesPerActivate::384-511           68      5.07%     50.89% # Bytes accessed per row activation
system.mem_ctrl.bytesPerActivate::512-639           56      4.17%     55.07% # Bytes accessed per row activation
system.mem_ctrl.bytesPerActivate::640-767           46      3.43%     58.49% # Bytes accessed per row activation
system.mem_ctrl.bytesPerActivate::768-895           39      2.91%     61.40% # Bytes accessed per row activation
system.mem_ctrl.bytesPerActivate::896-1023           35      2.61%     64.01% # Bytes accessed per row activation
system.mem_ctrl.bytesPerActivate::1024-1151          483     35.99%    100.00% # Bytes accessed per row activation
system.mem_ctrl.bytesPerActivate::total          1342                       # Bytes accessed per row activation
system.mem_ctrl.rdPerTurnAround::samples          223                       # Reads before turning the bus around for writes
system.mem_ctrl.rdPerTurnAround::mean       37.515695                       # Reads before turning the bus around for writes
system.mem_ctrl.rdPerTurnAround::gmean      17.815645                       # Reads before turning the bus around for writes
system.mem_ctrl.rdPerTurnAround::stdev     237.334444                       # Reads before turning the bus around for writes
system.mem_ctrl.rdPerTurnAround::0-127            219     98.21%     98.21% # Reads before turning the bus around for writes
system.mem_ctrl.rdPerTurnAround::128-255            2      0.90%     99.10% # Reads before turning the bus around for writes
system.mem_ctrl.rdPerTurnAround::512-639            1      0.45%     99.55% # Reads before turning the bus around for writes
system.mem_ctrl.rdPerTurnAround::3456-3583            1      0.45%    100.00% # Reads before turning the bus around for writes
system.mem_ctrl.rdPerTurnAround::total            223                       # Reads before turning the bus around for writes
system.mem_ctrl.wrPerTurnAround::samples          223                       # Writes before turning the bus around for reads
system.mem_ctrl.wrPerTurnAround::mean       16.026906                       # Writes before turning the bus around for reads
system.mem_ctrl.wrPerTurnAround::gmean      16.025372                       # Writes before turning the bus around for reads
system.mem_ctrl.wrPerTurnAround::stdev       0.230926                       # Writes before turning the bus around for reads
system.mem_ctrl.wrPerTurnAround::16               220     98.65%     98.65% # Writes before turning the bus around for reads
system.mem_ctrl.wrPerTurnAround::18                 3      1.35%    100.00% # Writes before turning the bus around for reads
system.mem_ctrl.wrPerTurnAround::total            223                       # Writes before turning the bus around for reads
system.mem_ctrl.bytesReadDRAM                  536384                       # Total number of bytes read from DRAM
system.mem_ctrl.bytesReadWrQ                       64                       # Total number of bytes read from write queue
system.mem_ctrl.bytesWritten                   228736                       # Total number of bytes written to DRAM
system.mem_ctrl.bytesReadSys                   536448                       # Total read bytes from the system interface side
system.mem_ctrl.bytesWrittenSys                230784                       # Total written bytes from the system interface side
system.mem_ctrl.avgRdBW                        148.88                       # Average DRAM read bandwidth in MiByte/s
system.mem_ctrl.avgWrBW                         63.49                       # Average achieved write bandwidth in MiByte/s
system.mem_ctrl.avgRdBWSys                     148.89                       # Average system read bandwidth in MiByte/s
system.mem_ctrl.avgWrBWSys                      64.05                       # Average system write bandwidth in MiByte/s
system.mem_ctrl.peakBW                       12800.00                       # Theoretical peak bandwidth in MiByte/s
system.mem_ctrl.busUtil                          1.66                       # Data bus utilization in percentage
system.mem_ctrl.busUtilRead                      1.16                       # Data bus utilization in percentage for reads
system.mem_ctrl.busUtilWrite                     0.50                       # Data bus utilization in percentage for writes
system.mem_ctrl.totGap                     3602843000                       # Total gap between requests
system.mem_ctrl.avgGap                      300537.45                       # Average gap between requests
system.mem_ctrl.masterReadBytes::.cpu.inst        37184                       # Per-master bytes read from memory
system.mem_ctrl.masterReadBytes::.cpu.data       499200                       # Per-master bytes read from memory
system.mem_ctrl.masterWriteBytes::.writebacks       228736                       # Per-master bytes write to memory
system.mem_ctrl.masterReadRate::.cpu.inst 10320555.040693528950                       # Per-master bytes read from memory rate (Bytes/sec)
system.mem_ctrl.masterReadRate::.cpu.data 138554783.678846001625                       # Per-master bytes read from memory rate (Bytes/sec)
system.mem_ctrl.masterWriteRate::.writebacks 63486512.418999440968                       # Per-master bytes write to memory rate (Bytes/sec)
system.mem_ctrl.masterReadAccesses::.cpu.inst          581                       # Per-master read serviced memory accesses
system.mem_ctrl.masterReadAccesses::.cpu.data         7801                       # Per-master read serviced memory accesses
system.mem_ctrl.masterWriteAccesses::.writebacks         3606                       # Per-master write serviced memory accesses
system.mem_ctrl.masterReadTotalLat::.cpu.inst     14522500                       # Per-master read total memory access latency
system.mem_ctrl.masterReadTotalLat::.cpu.data    206927750                       # Per-master read total memory access latency
system.mem_ctrl.masterWriteTotalLat::.writebacks  32709054750                       # Per-master write total memory access latency
system.mem_ctrl.masterReadAvgLat::.cpu.inst     24995.70                       # Per-master read average memory access latency
system.mem_ctrl.masterReadAvgLat::.cpu.data     26525.80                       # Per-master read average memory access latency
system.mem_ctrl.masterWriteAvgLat::.writebacks   9070730.66                       # Per-master write average memory access latency
system.mem_ctrl.pageHitRate                     88.52                       # Row buffer hit rate, read and write combined
system.mem_ctrl.rank1.actEnergy               5876220                       # Energy for activate commands per rank (pJ)
system.mem_ctrl.rank1.preEnergy               3123285                       # Energy for precharge commands per rank (pJ)
system.mem_ctrl.rank1.readEnergy             32722620                       # Energy for read commands per rank (pJ)
system.mem_ctrl.rank1.writeEnergy            11207340                       # Energy for write commands per rank (pJ)
system.mem_ctrl.rank1.refreshEnergy      283963680.000000                       # Energy for refresh commands per rank (pJ)
system.mem_ctrl.rank1.actBackEnergy        1193045910                       # Energy for active background per rank (pJ)
system.mem_ctrl.rank1.preBackEnergy         378846240                       # Energy for precharge background per rank (pJ)
system.mem_ctrl.rank1.actPowerDownEnergy            0                       # Energy for active power-down per rank (pJ)
system.mem_ctrl.rank1.prePowerDownEnergy            0                       # Energy for precharge power-down per rank (pJ)
system.mem_ctrl.rank1.selfRefreshEnergy             0                       # Energy for self refresh per rank (pJ)
system.mem_ctrl.rank1.totalEnergy          1908785295                       # Total energy per rank (pJ)
system.mem_ctrl.rank1.averagePower         529.790332                       # Core power per rank (mW)
system.mem_ctrl.rank1.totalIdleTime                 0                       # Total Idle time Per DRAM Rank
system.mem_ctrl.rank1.memoryStateTime::IDLE    971967500                       # Time in different power states
system.mem_ctrl.rank1.memoryStateTime::REF    120120000                       # Time in different power states
system.mem_ctrl.rank1.memoryStateTime::SREF            0                       # Time in different power states
system.mem_ctrl.rank1.memoryStateTime::PRE_PDN            0                       # Time in different power states
system.mem_ctrl.rank1.memoryStateTime::ACT   2510819500                       # Time in different power states
system.mem_ctrl.rank1.memoryStateTime::ACT_PDN            0                       # Time in different power states
system.mem_ctrl.rank0.actEnergy               3719940                       # Energy for activate commands per rank (pJ)
system.mem_ctrl.rank0.preEnergy               1969605                       # Energy for precharge commands per rank (pJ)
system.mem_ctrl.rank0.readEnergy             27117720                       # Energy for read commands per rank (pJ)
system.mem_ctrl.rank0.writeEnergy             7448940                       # Energy for write commands per rank (pJ)
system.mem_ctrl.rank0.refreshEnergy      283963680.000000                       # Energy for refresh commands per rank (pJ)
system.mem_ctrl.rank0.actBackEnergy         354070320                       # Energy for active background per rank (pJ)
system.mem_ctrl.rank0.preBackEnergy        1085352000                       # Energy for precharge background per rank (pJ)
system.mem_ctrl.rank0.actPowerDownEnergy            0                       # Energy for active power-down per rank (pJ)
system.mem_ctrl.rank0.prePowerDownEnergy            0                       # Energy for precharge power-down per rank (pJ)
system.mem_ctrl.rank0.selfRefreshEnergy             0                       # Energy for self refresh per rank (pJ)
system.mem_ctrl.rank0.totalEnergy          1763642205                       # Total energy per rank (pJ)
system.mem_ctrl.rank0.averagePower         489.505337                       # Core power per rank (mW)
system.mem_ctrl.rank0.totalIdleTime                 0                       # Total Idle time Per DRAM Rank
system.mem_ctrl.rank0.memoryStateTime::IDLE   2816292000                       # Time in different power states
system.mem_ctrl.rank0.memoryStateTime::REF    120120000                       # Time in different power states
system.mem_ctrl.rank0.memoryStateTime::SREF            0                       # Time in different power states
system.mem_ctrl.rank0.memoryStateTime::PRE_PDN            0                       # Time in different power states
system.mem_ctrl.rank0.memoryStateTime::ACT    666495000                       # Time in different power states
system.mem_ctrl.rank0.memoryStateTime::ACT_PDN            0                       # Time in different power states
system.mem_ctrl.power_state.pwrStateResidencyTicks::UNDEFINED   3602907000                       # Cumulative time (in ticks) in various power states
system.cache_medium.blocked_cycles::no_mshrs            0                       # number of cycles access was blocked
system.cache_medium.blocked_cycles::no_targets            0                       # number of cycles access was blocked
system.cache_medium.blocked::no_mshrs               0                       # number of cycles access was blocked
system.cache_medium.blocked::no_targets             0                       # number of cycles access was blocked
system.cache_medium.avg_blocked_cycles::no_mshrs          nan                       # average number of cycles each access was blocked
system.cache_medium.avg_blocked_cycles::no_targets          nan                       # average number of cycles each access was blocked
system.cache_medium.replacements                    0                       # number of replacements
system.cache_medium.power_state.pwrStateResidencyTicks::UNDEFINED   3602907000                       # Cumulative time (in ticks) in various power states
system.cache_medium.tags.tagsinuse                  0                       # Cycle average of tags in use
system.cache_medium.tags.total_refs                 0                       # Total number of references to valid blocks.
system.cache_medium.tags.sampled_refs               0                       # Sample count of references to valid blocks.
system.cache_medium.tags.avg_refs                 nan                       # Average number of references to valid blocks.
system.cache_medium.tags.warmup_cycle               0                       # Cycle when the warmup percentage was hit.
system.cache_medium.tags.tag_accesses               0                       # Number of tag accesses
system.cache_medium.tags.data_accesses              0                       # Number of data accesses
system.cache_medium.tags.power_state.pwrStateResidencyTicks::UNDEFINED   3602907000                       # Cumulative time (in ticks) in various power states
system.clk_domain.clock                          1000                       # Clock period in ticks
system.clk_domain.voltage_domain.voltage            1                       # Voltage in Volts
system.dcache.demand_hits::.cpu.data           153687                       # number of demand (read+write) hits
system.dcache.demand_hits::total               153687                       # number of demand (read+write) hits
system.dcache.overall_hits::.cpu.data          153687                       # number of overall hits
system.dcache.overall_hits::total              153687                       # number of overall hits
system.dcache.demand_misses::.cpu.data           7827                       # number of demand (read+write) misses
system.dcache.demand_misses::total               7827                       # number of demand (read+write) misses
system.dcache.overall_misses::.cpu.data          7925                       # number of overall misses
system.dcache.overall_misses::total              7925                       # number of overall misses
system.dcache.demand_miss_latency::.cpu.data    593945000                       # number of demand (read+write) miss cycles
system.dcache.demand_miss_latency::total    593945000                       # number of demand (read+write) miss cycles
system.dcache.overall_miss_latency::.cpu.data    601335000                       # number of overall miss cycles
system.dcache.overall_miss_latency::total    601335000                       # number of overall miss cycles
system.dcache.demand_accesses::.cpu.data       161514                       # number of demand (read+write) accesses
system.dcache.demand_accesses::total           161514                       # number of demand (read+write) accesses
system.dcache.overall_accesses::.cpu.data       161612                       # number of overall (read+write) accesses
system.dcache.overall_accesses::total          161612                       # number of overall (read+write) accesses
system.dcache.demand_miss_rate::.cpu.data     0.048460                       # miss rate for demand accesses
system.dcache.demand_miss_rate::total        0.048460                       # miss rate for demand accesses
system.dcache.overall_miss_rate::.cpu.data     0.049037                       # miss rate for overall accesses
system.dcache.overall_miss_rate::total       0.049037                       # miss rate for overall accesses
system.dcache.demand_avg_miss_latency::.cpu.data 75884.119075                       # average overall miss latency
system.dcache.demand_avg_miss_latency::total 75884.119075                       # average overall miss latency
system.dcache.overall_avg_miss_latency::.cpu.data 75878.233438                       # average overall miss latency
system.dcache.overall_avg_miss_latency::total 75878.233438                       # average overall miss latency
system.dcache.blocked_cycles::no_mshrs              0                       # number of cycles access was blocked
system.dcache.blocked_cycles::no_targets            0                       # number of cycles access was blocked
system.dcache.blocked::no_mshrs                     0                       # number of cycles access was blocked
system.dcache.blocked::no_targets                   0                       # number of cycles access was blocked
system.dcache.avg_blocked_cycles::no_mshrs          nan                       # average number of cycles each access was blocked
system.dcache.avg_blocked_cycles::no_targets          nan                       # average number of cycles each access was blocked
system.dcache.writebacks::.writebacks            7484                       # number of writebacks
system.dcache.writebacks::total                  7484                       # number of writebacks
system.dcache.demand_mshr_misses::.cpu.data         7827                       # number of demand (read+write) MSHR misses
system.dcache.demand_mshr_misses::total          7827                       # number of demand (read+write) MSHR misses
system.dcache.overall_mshr_misses::.cpu.data         7925                       # number of overall MSHR misses
system.dcache.overall_mshr_misses::total         7925                       # number of overall MSHR misses
system.dcache.demand_mshr_miss_latency::.cpu.data    578293000                       # number of demand (read+write) MSHR miss cycles
system.dcache.demand_mshr_miss_latency::total    578293000                       # number of demand (read+write) MSHR miss cycles
system.dcache.overall_mshr_miss_latency::.cpu.data    585487000                       # number of overall MSHR miss cycles
system.dcache.overall_mshr_miss_latency::total    585487000                       # number of overall MSHR miss cycles
[...]
system.dcache.tags.occ_percent::total        0.998743                       # Average percentage of cache occupancy
system.dcache.tags.occ_task_id_blocks::1024          256                       # Occupied blocks per task id
system.dcache.tags.age_task_id_blocks_1024::0           89                       # Occupied blocks per task id
system.dcache.tags.age_task_id_blocks_1024::1          167                       # Occupied blocks per task id
system.dcache.tags.occ_task_id_percent::1024            1                       # Percentage of cache occupancy per task id
system.dcache.tags.tag_accesses               7883822                       # Number of tag accesses
system.dcache.tags.data_accesses              7883822                       # Number of data accesses
system.dcache.tags.power_state.pwrStateResidencyTicks::UNDEFINED 100434514000                       # Cumulative time (in ticks) in various power states
system.cache_large.blocked_cycles::no_mshrs            0                       # number of cycles access was blocked
system.cache_large.blocked_cycles::no_targets            0                       # number of cycles access was blocked
system.cache_large.blocked::no_mshrs                0                       # number of cycles access was blocked
system.cache_large.blocked::no_targets              0                       # number of cycles access was blocked
system.cache_large.avg_blocked_cycles::no_mshrs          nan                       # average number of cycles each access was blocked
system.cache_large.avg_blocked_cycles::no_targets          nan                       # average number of cycles each access was blocked
system.cache_large.replacements                     0                       # number of replacements
system.cache_large.power_state.pwrStateResidencyTicks::UNDEFINED 100434514000                       # Cumulative time (in ticks) in various power states
system.cache_large.tags.tagsinuse                   0                       # Cycle average of tags in use
system.cache_large.tags.total_refs                  0                       # Total number of references to valid blocks.
system.cache_large.tags.sampled_refs                0                       # Sample count of references to valid blocks.
system.cache_large.tags.avg_refs                  nan                       # Average number of references to valid blocks.
system.cache_large.tags.warmup_cycle                0                       # Cycle when the warmup percentage was hit.
system.cache_large.tags.tag_accesses                0                       # Number of tag accesses
system.cache_large.tags.data_accesses               0                       # Number of data accesses
system.cache_large.tags.power_state.pwrStateResidencyTicks::UNDEFINED 100434514000                       # Cumulative time (in ticks) in various power states
system.l2cache.demand_hits::.cpu.inst              12                       # number of demand (read+write) hits
system.l2cache.demand_hits::.cpu.data              34                       # number of demand (read+write) hits
system.l2cache.demand_hits::total                  46                       # number of demand (read+write) hits
system.l2cache.overall_hits::.cpu.inst             12                       # number of overall hits
system.l2cache.overall_hits::.cpu.data             34                       # number of overall hits
system.l2cache.overall_hits::total                 46                       # number of overall hits
system.l2cache.demand_misses::.cpu.inst           741                       # number of demand (read+write) misses
system.l2cache.demand_misses::.cpu.data        865033                       # number of demand (read+write) misses
system.l2cache.demand_misses::total            865774                       # number of demand (read+write) misses
system.l2cache.overall_misses::.cpu.inst          741                       # number of overall misses
system.l2cache.overall_misses::.cpu.data       865033                       # number of overall misses
system.l2cache.overall_misses::total           865774                       # number of overall misses
system.l2cache.demand_miss_latency::.cpu.inst     42356000                       # number of demand (read+write) miss cycles
system.l2cache.demand_miss_latency::.cpu.data  63072585000                       # number of demand (read+write) miss cycles
system.l2cache.demand_miss_latency::total  63114941000                       # number of demand (read+write) miss cycles
system.l2cache.overall_miss_latency::.cpu.inst     42356000                       # number of overall miss cycles
system.l2cache.overall_miss_latency::.cpu.data  63072585000                       # number of overall miss cycles
system.l2cache.overall_miss_latency::total  63114941000                       # number of overall miss cycles
system.l2cache.demand_accesses::.cpu.inst          753                       # number of demand (read+write) accesses
system.l2cache.demand_accesses::.cpu.data       865067                       # number of demand (read+write) accesses
system.l2cache.demand_accesses::total          865820                       # number of demand (read+write) accesses
system.l2cache.overall_accesses::.cpu.inst          753                       # number of overall (read+write) accesses
system.l2cache.overall_accesses::.cpu.data       865067                       # number of overall (read+write) accesses
system.l2cache.overall_accesses::total         865820                       # number of overall (read+write) accesses
system.l2cache.demand_miss_rate::.cpu.inst     0.984064                       # miss rate for demand accesses
system.l2cache.demand_miss_rate::.cpu.data     0.999961                       # miss rate for demand accesses
system.l2cache.demand_miss_rate::total       0.999947                       # miss rate for demand accesses
system.l2cache.overall_miss_rate::.cpu.inst     0.984064                       # miss rate for overall accesses
system.l2cache.overall_miss_rate::.cpu.data     0.999961                       # miss rate for overall accesses
system.l2cache.overall_miss_rate::total      0.999947                       # miss rate for overall accesses
system.l2cache.demand_avg_miss_latency::.cpu.inst 57160.593792                       # average overall miss latency
system.l2cache.demand_avg_miss_latency::.cpu.data 72913.501566                       # average overall miss latency
system.l2cache.demand_avg_miss_latency::total 72900.018943                       # average overall miss latency
system.l2cache.overall_avg_miss_latency::.cpu.inst 57160.593792                       # average overall miss latency
system.l2cache.overall_avg_miss_latency::.cpu.data 72913.501566                       # average overall miss latency
system.l2cache.overall_avg_miss_latency::total 72900.018943                       # average overall miss latency
system.l2cache.blocked_cycles::no_mshrs             0                       # number of cycles access was blocked
system.l2cache.blocked_cycles::no_targets            0                       # number of cycles access was blocked
system.l2cache.blocked::no_mshrs                    0                       # number of cycles access was blocked
system.l2cache.blocked::no_targets                  0                       # number of cycles access was blocked
system.l2cache.avg_blocked_cycles::no_mshrs          nan                       # average number of cycles each access was blocked
system.l2cache.avg_blocked_cycles::no_targets          nan                       # average number of cycles each access was blocked
system.l2cache.writebacks::.writebacks         864368                       # number of writebacks
system.l2cache.writebacks::total               864368                       # number of writebacks
system.l2cache.demand_mshr_misses::.cpu.inst          741                       # number of demand (read+write) MSHR misses
system.l2cache.demand_mshr_misses::.cpu.data       865033                       # number of demand (read+write) MSHR misses
system.l2cache.demand_mshr_misses::total       865774                       # number of demand (read+write) MSHR misses
system.l2cache.overall_mshr_misses::.cpu.inst          741                       # number of overall MSHR misses
system.l2cache.overall_mshr_misses::.cpu.data       865033                       # number of overall MSHR misses
system.l2cache.overall_mshr_misses::total       865774                       # number of overall MSHR misses
system.l2cache.demand_mshr_miss_latency::.cpu.inst     40874000                       # number of demand (read+write) MSHR miss cycles
system.l2cache.demand_mshr_miss_latency::.cpu.data  61342519000                       # number of demand (read+write) MSHR miss cycles
system.l2cache.demand_mshr_miss_latency::total  61383393000                       # number of demand (read+write) MSHR miss cycles
system.l2cache.overall_mshr_miss_latency::.cpu.inst     40874000                       # number of overall MSHR miss cycles
system.l2cache.overall_mshr_miss_latency::.cpu.data  61342519000                       # number of overall MSHR miss cycles
system.l2cache.overall_mshr_miss_latency::total  61383393000                       # number of overall MSHR miss cycles
system.l2cache.demand_mshr_miss_rate::.cpu.inst     0.984064                       # mshr miss rate for demand accesses
system.l2cache.demand_mshr_miss_rate::.cpu.data     0.999961                       # mshr miss rate for demand accesses
system.l2cache.demand_mshr_miss_rate::total     0.999947                       # mshr miss rate for demand accesses
system.l2cache.overall_mshr_miss_rate::.cpu.inst     0.984064                       # mshr miss rate for overall accesses
system.l2cache.overall_mshr_miss_rate::.cpu.data     0.999961                       # mshr miss rate for overall accesses
system.l2cache.overall_mshr_miss_rate::total     0.999947                       # mshr miss rate for overall accesses
system.l2cache.demand_avg_mshr_miss_latency::.cpu.inst 55160.593792                       # average overall mshr miss latency
system.l2cache.demand_avg_mshr_miss_latency::.cpu.data 70913.501566                       # average overall mshr miss latency
system.l2cache.demand_avg_mshr_miss_latency::total 70900.018943                       # average overall mshr miss latency
system.l2cache.overall_avg_mshr_miss_latency::.cpu.inst 55160.593792                       # average overall mshr miss latency
system.l2cache.overall_avg_mshr_miss_latency::.cpu.data 70913.501566                       # average overall mshr miss latency
system.l2cache.overall_avg_mshr_miss_latency::total 70900.018943                       # average overall mshr miss latency
system.l2cache.replacements                    866090                       # number of replacements
system.l2cache.ReadReq_hits::.cpu.inst             12                       # number of ReadReq hits
system.l2cache.ReadReq_hits::.cpu.data             34                       # number of ReadReq hits
system.l2cache.ReadReq_hits::total                 46                       # number of ReadReq hits
system.l2cache.ReadReq_misses::.cpu.inst          741                       # number of ReadReq misses
system.l2cache.ReadReq_misses::.cpu.data       865033                       # number of ReadReq misses
system.l2cache.ReadReq_misses::total           865774                       # number of ReadReq misses
system.l2cache.ReadReq_miss_latency::.cpu.inst     42356000                       # number of ReadReq miss cycles
system.l2cache.ReadReq_miss_latency::.cpu.data  63072585000                       # number of ReadReq miss cycles
system.l2cache.ReadReq_miss_latency::total  63114941000                       # number of ReadReq miss cycles
system.l2cache.ReadReq_accesses::.cpu.inst          753                       # number of ReadReq accesses(hits+misses)
system.l2cache.ReadReq_accesses::.cpu.data       865067                       # number of ReadReq accesses(hits+misses)
system.l2cache.ReadReq_accesses::total         865820                       # number of ReadReq accesses(hits+misses)
system.l2cache.ReadReq_miss_rate::.cpu.inst     0.984064                       # miss rate for ReadReq accesses
system.l2cache.ReadReq_miss_rate::.cpu.data     0.999961                       # miss rate for ReadReq accesses
system.l2cache.ReadReq_miss_rate::total      0.999947                       # miss rate for ReadReq accesses
system.l2cache.ReadReq_avg_miss_latency::.cpu.inst 57160.593792                       # average ReadReq miss latency
system.l2cache.ReadReq_avg_miss_latency::.cpu.data 72913.501566                       # average ReadReq miss latency
system.l2cache.ReadReq_avg_miss_latency::total 72900.018943                       # average ReadReq miss latency
system.l2cache.ReadReq_mshr_misses::.cpu.inst          741                       # number of ReadReq MSHR misses
system.l2cache.ReadReq_mshr_misses::.cpu.data       865033                       # number of ReadReq MSHR misses
system.l2cache.ReadReq_mshr_misses::total       865774                       # number of ReadReq MSHR misses
system.l2cache.ReadReq_mshr_miss_latency::.cpu.inst     40874000                       # number of ReadReq MSHR miss cycles
system.l2cache.ReadReq_mshr_miss_latency::.cpu.data  61342519000                       # number of ReadReq MSHR miss cycles
system.l2cache.ReadReq_mshr_miss_latency::total  61383393000                       # number of ReadReq MSHR miss cycles
system.l2cache.ReadReq_mshr_miss_rate::.cpu.inst     0.984064                       # mshr miss rate for ReadReq accesses
system.l2cache.ReadReq_mshr_miss_rate::.cpu.data     0.999961                       # mshr miss rate for ReadReq accesses
system.l2cache.ReadReq_mshr_miss_rate::total     0.999947                       # mshr miss rate for ReadReq accesses
system.l2cache.ReadReq_avg_mshr_miss_latency::.cpu.inst 55160.593792                       # average ReadReq mshr miss latency
system.l2cache.ReadReq_avg_mshr_miss_latency::.cpu.data 70913.501566                       # average ReadReq mshr miss latency
system.l2cache.ReadReq_avg_mshr_miss_latency::total 70900.018943                       # average ReadReq mshr miss latency
system.l2cache.WritebackDirty_hits::.writebacks       864627                       # number of WritebackDirty hits
system.l2cache.WritebackDirty_hits::total       864627                       # number of WritebackDirty hits
system.l2cache.WritebackDirty_accesses::.writebacks       864627                       # number of WritebackDirty accesses(hits+misses)
system.l2cache.WritebackDirty_accesses::total       864627                       # number of WritebackDirty accesses(hits+misses)
system.l2cache.power_state.pwrStateResidencyTicks::UNDEFINED 100434514000                       # Cumulative time (in ticks) in various power states
system.l2cache.tags.tagsinuse              510.997333                       # Cycle average of tags in use
system.l2cache.tags.total_refs                1730447                       # Total number of references to valid blocks.
system.l2cache.tags.sampled_refs               866602                       # Sample count of references to valid blocks.
system.l2cache.tags.avg_refs                 1.996819                       # Average number of references to valid blocks.
system.l2cache.tags.warmup_cycle                78000                       # Cycle when the warmup percentage was hit.
system.l2cache.tags.occ_blocks::.writebacks     1.805406                       # Average occupied blocks per requestor
system.l2cache.tags.occ_blocks::.cpu.inst     1.729863                       # Average occupied blocks per requestor
system.l2cache.tags.occ_blocks::.cpu.data   507.462064                       # Average occupied blocks per requestor
system.l2cache.tags.occ_percent::.writebacks     0.003526                       # Average percentage of cache occupancy
system.l2cache.tags.occ_percent::.cpu.inst     0.003379                       # Average percentage of cache occupancy
system.l2cache.tags.occ_percent::.cpu.data     0.991137                       # Average percentage of cache occupancy
system.l2cache.tags.occ_percent::total       0.998042                       # Average percentage of cache occupancy
system.l2cache.tags.occ_task_id_blocks::1024          512                       # Occupied blocks per task id
system.l2cache.tags.age_task_id_blocks_1024::0           89                       # Occupied blocks per task id
system.l2cache.tags.age_task_id_blocks_1024::1          423                       # Occupied blocks per task id
system.l2cache.tags.occ_task_id_percent::1024            1                       # Percentage of cache occupancy per task id
system.l2cache.tags.tag_accesses              2597049                       # Number of tag accesses
system.l2cache.tags.data_accesses             2597049                       # Number of data accesses
system.l2cache.tags.power_state.pwrStateResidencyTicks::UNDEFINED 100434514000                       # Cumulative time (in ticks) in various power states
system.l2bar.trans_dist::ReadReq               865820                       # Transaction distribution
system.l2bar.trans_dist::ReadResp              865820                       # Transaction distribution
system.l2bar.trans_dist::WritebackDirty        864627                       # Transaction distribution
system.l2bar.pkt_count_system.dcache.mem_side::system.l2cache.cpu_side      2594761                       # Packet count per connected master and slave (bytes)
system.l2bar.pkt_count_system.icache.mem_side::system.l2cache.cpu_side         1506                       # Packet count per connected master and slave (bytes)
system.l2bar.pkt_count::total                 2596267                       # Packet count per connected master and slave (bytes)
system.l2bar.pkt_size_system.dcache.mem_side::system.l2cache.cpu_side    110700416                       # Cumulative packet size per connected master and slave (bytes)
system.l2bar.pkt_size_system.icache.mem_side::system.l2cache.cpu_side        48192                       # Cumulative packet size per connected master and slave (bytes)
system.l2bar.pkt_size::total                110748608                       # Cumulative packet size per connected master and slave (bytes)
system.l2bar.respLayer1.occupancy             3765000                       # Layer occupancy (ticks)
system.l2bar.respLayer1.utilization               0.0                       # Layer utilization (%)
system.l2bar.reqLayer0.occupancy           5188955000                       # Layer occupancy (ticks)
system.l2bar.reqLayer0.utilization                5.2                       # Layer utilization (%)
system.l2bar.respLayer0.occupancy          4325335000                       # Layer occupancy (ticks)
system.l2bar.respLayer0.utilization               4.3                       # Layer utilization (%)
system.l2bar.power_state.pwrStateResidencyTicks::UNDEFINED 100434514000                       # Cumulative time (in ticks) in various power states
system.cpu.dtb.walker.power_state.pwrStateResidencyTicks::UNDEFINED 100434514000                       # Cumulative time (in ticks) in various power states
system.cpu.interrupts.clk_domain.clock          16000                       # Clock period in ticks
system.cpu.itb.walker.power_state.pwrStateResidencyTicks::UNDEFINED 100434514000                       # Cumulative time (in ticks) in various power states
system.cpu.power_state.numTransitions               1                       # Number of power state transitions
system.cpu.power_state.pwrStateResidencyTicks::ON 100434514000                       # Cumulative time (in ticks) in various power states

---------- End Simulation Statistics   ----------
