
---------- Begin Simulation Statistics ----------
final_tick                                 4216462000                       # Number of ticks from beginning of simulation (restored from checkpoints and never reset)
host_inst_rate                                  91017                       # Simulator instruction rate (inst/s)
host_mem_usage                               34261768                       # Number of bytes of host memory used
host_op_rate                                   187536                       # Simulator op (including micro ops) rate (op/s)
host_seconds                                    10.99                       # Real time elapsed on the host
host_tick_rate                              383702276                       # Simulator tick rate (ticks/s)
sim_freq                                 1000000000000                       # Frequency of simulated ticks
sim_insts                                     1000144                       # Number of instructions simulated
sim_ops                                       2060798                       # Number of ops (including micro ops) simulated
sim_seconds                                  0.004216                       # Number of seconds simulated
sim_ticks                                  4216462000                       # Number of ticks simulated
system.cpu.Branches                            239608                       # Number of branches fetched
system.cpu.committedInsts                     1000144                       # Number of instructions committed
system.cpu.committedOps                       2060798                       # Number of ops (including micro ops) committed
system.cpu.dtb.rdAccesses                      201717                       # TLB accesses on read requests
system.cpu.dtb.rdMisses                            74                       # TLB misses on read requests
system.cpu.dtb.wrAccesses                      139460                       # TLB accesses on write requests
system.cpu.dtb.wrMisses                            63                       # TLB misses on write requests
system.cpu.idle_fraction                            0                       # Percentage of idle cycles
system.cpu.itb.rdAccesses                           0                       # TLB accesses on read requests
system.cpu.itb.rdMisses                             0                       # TLB misses on read requests
system.cpu.itb.wrAccesses                     1319788                       # TLB accesses on write requests
system.cpu.itb.wrMisses                           164                       # TLB misses on write requests
system.cpu.not_idle_fraction                        1                       # Percentage of non-idle cycles
system.cpu.numCycles                          4216451                       # number of cpu cycles simulated
system.cpu.numWorkItemsCompleted                    0                       # number of work items this cpu completed
system.cpu.numWorkItemsStarted                      0                       # number of work items this cpu started
system.cpu.num_busy_cycles                    4216451                       # Number of busy cycles
system.cpu.num_cc_register_reads              1493491                       # number of times the CC registers were read
system.cpu.num_cc_register_writes              634761                       # number of times the CC registers were written
system.cpu.num_conditional_control_insts       176830                       # number of instructions that are conditional controls
system.cpu.num_fp_alu_accesses                  81369                       # Number of float alu accesses
system.cpu.num_fp_insts                         81369                       # number of float instructions
system.cpu.num_fp_register_reads               136512                       # number of times the floating registers were read
system.cpu.num_fp_register_writes               69029                       # number of times the floating registers were written
system.cpu.num_func_calls                       43018                       # number of times a function call or return occured
system.cpu.num_idle_cycles                          0                       # Number of idle cycles
system.cpu.num_int_alu_accesses               1990365                       # Number of integer alu accesses
system.cpu.num_int_insts                      1990365                       # number of integer instructions
system.cpu.num_int_register_reads             3845448                       # number of times the integer registers were read
system.cpu.num_int_register_writes            1603860                       # number of times the integer registers were written
system.cpu.num_load_insts                      201364                       # Number of load instructions
system.cpu.num_mem_refs                        340733                       # number of memory refs
system.cpu.num_store_insts                     139369                       # Number of store instructions
system.cpu.num_vec_alu_accesses                     0                       # Number of vector alu accesses
system.cpu.num_vec_insts                            0                       # number of vector instructions
system.cpu.num_vec_register_reads                   0                       # number of times the vector registers were read
system.cpu.num_vec_register_writes                  0                       # number of times the vector registers were written
system.cpu.op_class::No_OpClass                 14340      0.70%      0.70% # Class of executed instruction
system.cpu.op_class::IntAlu                   1643714     79.76%     80.46% # Class of executed instruction
system.cpu.op_class::IntMult                       20      0.00%     80.46% # Class of executed instruction
system.cpu.op_class::IntDiv                        42      0.00%     80.46% # Class of executed instruction
system.cpu.op_class::FloatAdd                    2029      0.10%     80.56% # Class of executed instruction
system.cpu.op_class::FloatCmp                       0      0.00%     80.56% # Class of executed instruction
system.cpu.op_class::FloatCvt                       0      0.00%     80.56% # Class of executed instruction
system.cpu.op_class::FloatMult                      0      0.00%     80.56% # Class of executed instruction
system.cpu.op_class::FloatMultAcc                   0      0.00%     80.56% # Class of executed instruction
system.cpu.op_class::FloatDiv                       0      0.00%     80.56% # Class of executed instruction
system.cpu.op_class::FloatMisc                      0      0.00%     80.56% # Class of executed instruction
system.cpu.op_class::FloatSqrt                      0      0.00%     80.56% # Class of executed instruction
system.cpu.op_class::SimdAdd                       20      0.00%     80.56% # Class of executed instruction
system.cpu.op_class::SimdAddAcc                     0      0.00%     80.56% # Class of executed instruction
system.cpu.op_class::SimdAlu                    20498      0.99%     81.55% # Class of executed instruction
system.cpu.op_class::SimdCmp                      466      0.02%     81.58% # Class of executed instruction
system.cpu.op_class::SimdCvt                    14386      0.70%     82.27% # Class of executed instruction
system.cpu.op_class::SimdMisc                   24550      1.19%     83.46% # Class of executed instruction
system.cpu.op_class::SimdMult                       0      0.00%     83.46% # Class of executed instruction
system.cpu.op_class::SimdMultAcc                    0      0.00%     83.46% # Class of executed instruction
system.cpu.op_class::SimdShift                      0      0.00%     83.46% # Class of executed instruction
system.cpu.op_class::SimdShiftAcc                   0      0.00%     83.46% # Class of executed instruction
system.cpu.op_class::SimdDiv                        0      0.00%     83.46% # Class of executed instruction
system.cpu.op_class::SimdSqrt                       0      0.00%     83.46% # Class of executed instruction
system.cpu.op_class::SimdFloatAdd                   0      0.00%     83.46% # Class of executed instruction
system.cpu.op_class::SimdFloatAlu                   0      0.00%     83.46% # Class of executed instruction
system.cpu.op_class::SimdFloatCmp                   0      0.00%     83.46% # Class of executed instruction
system.cpu.op_class::SimdFloatCvt                   0      0.00%     83.46% # Class of executed instruction
system.cpu.op_class::SimdFloatDiv                  25      0.00%     83.47% # Class of executed instruction
system.cpu.op_class::SimdFloatMisc                  0      0.00%     83.47% # Class of executed instruction
system.cpu.op_class::SimdFloatMult                  0      0.00%     83.47% # Class of executed instruction
system.cpu.op_class::SimdFloatMultAcc               0      0.00%     83.47% # Class of executed instruction
system.cpu.op_class::SimdFloatSqrt                  0      0.00%     83.47% # Class of executed instruction
system.cpu.op_class::SimdReduceAdd                  0      0.00%     83.47% # Class of executed instruction
system.cpu.op_class::SimdReduceAlu                  0      0.00%     83.47% # Class of executed instruction
system.cpu.op_class::SimdReduceCmp                  0      0.00%     83.47% # Class of executed instruction
system.cpu.op_class::SimdFloatReduceAdd             0      0.00%     83.47% # Class of executed instruction
system.cpu.op_class::SimdFloatReduceCmp             0      0.00%     83.47% # Class of executed instruction
system.cpu.op_class::SimdAes                        0      0.00%     83.47% # Class of executed instruction
system.cpu.op_class::SimdAesMix                     0      0.00%     83.47% # Class of executed instruction
system.cpu.op_class::SimdSha1Hash                   0      0.00%     83.47% # Class of executed instruction
system.cpu.op_class::SimdSha1Hash2                  0      0.00%     83.47% # Class of executed instruction
system.cpu.op_class::SimdSha256Hash                 0      0.00%     83.47% # Class of executed instruction
system.cpu.op_class::SimdSha256Hash2                0      0.00%     83.47% # Class of executed instruction
system.cpu.op_class::SimdShaSigma2                  0      0.00%     83.47% # Class of executed instruction
system.cpu.op_class::SimdShaSigma3                  0      0.00%     83.47% # Class of executed instruction
system.cpu.op_class::SimdPredAlu                    0      0.00%     83.47% # Class of executed instruction
system.cpu.op_class::MemRead                   190016      9.22%     92.69% # Class of executed instruction
system.cpu.op_class::MemWrite                  137376      6.67%     99.35% # Class of executed instruction
system.cpu.op_class::FloatMemRead               11348      0.55%     99.90% # Class of executed instruction
system.cpu.op_class::FloatMemWrite               1993      0.10%    100.00% # Class of executed instruction
system.cpu.op_class::IprAccess                      0      0.00%    100.00% # Class of executed instruction
system.cpu.op_class::InstPrefetch                   0      0.00%    100.00% # Class of executed instruction
system.cpu.op_class::total                    2060823                       # Class of executed instruction
system.cpu.workload.numSyscalls                    13                       # Number of system calls
system.dynamic_cache.flushTicks                     0                       # Ticks taken to flush
system.dynamic_cache.numFlushes                     0                       # Number of Flushes Taken
system.cache_small.demand_hits::.cpu.inst        10483                       # number of demand (read+write) hits
system.cache_small.demand_hits::.cpu.data         1481                       # number of demand (read+write) hits
system.cache_small.demand_hits::total           11964                       # number of demand (read+write) hits
system.cache_small.overall_hits::.cpu.inst        10483                       # number of overall hits
system.cache_small.overall_hits::.cpu.data         1481                       # number of overall hits
system.cache_small.overall_hits::total          11964                       # number of overall hits
system.cache_small.demand_misses::.cpu.inst         4253                       # number of demand (read+write) misses
system.cache_small.demand_misses::.cpu.data         2438                       # number of demand (read+write) misses
system.cache_small.demand_misses::total          6691                       # number of demand (read+write) misses
system.cache_small.overall_misses::.cpu.inst         4253                       # number of overall misses
system.cache_small.overall_misses::.cpu.data         2438                       # number of overall misses
system.cache_small.overall_misses::total         6691                       # number of overall misses
system.cache_small.demand_miss_latency::.cpu.inst    274281000                       # number of demand (read+write) miss cycles
system.cache_small.demand_miss_latency::.cpu.data    153772000                       # number of demand (read+write) miss cycles
system.cache_small.demand_miss_latency::total    428053000                       # number of demand (read+write) miss cycles
system.cache_small.overall_miss_latency::.cpu.inst    274281000                       # number of overall miss cycles
system.cache_small.overall_miss_latency::.cpu.data    153772000                       # number of overall miss cycles
system.cache_small.overall_miss_latency::total    428053000                       # number of overall miss cycles
system.cache_small.demand_accesses::.cpu.inst        14736                       # number of demand (read+write) accesses
system.cache_small.demand_accesses::.cpu.data         3919                       # number of demand (read+write) accesses
system.cache_small.demand_accesses::total        18655                       # number of demand (read+write) accesses
system.cache_small.overall_accesses::.cpu.inst        14736                       # number of overall (read+write) accesses
system.cache_small.overall_accesses::.cpu.data         3919                       # number of overall (read+write) accesses
system.cache_small.overall_accesses::total        18655                       # number of overall (read+write) accesses
system.cache_small.demand_miss_rate::.cpu.inst     0.288613                       # miss rate for demand accesses
system.cache_small.demand_miss_rate::.cpu.data     0.622097                       # miss rate for demand accesses
system.cache_small.demand_miss_rate::total     0.358671                       # miss rate for demand accesses
system.cache_small.overall_miss_rate::.cpu.inst     0.288613                       # miss rate for overall accesses
system.cache_small.overall_miss_rate::.cpu.data     0.622097                       # miss rate for overall accesses
system.cache_small.overall_miss_rate::total     0.358671                       # miss rate for overall accesses
system.cache_small.demand_avg_miss_latency::.cpu.inst 64491.182695                       # average overall miss latency
system.cache_small.demand_avg_miss_latency::.cpu.data 63073.010664                       # average overall miss latency
system.cache_small.demand_avg_miss_latency::total 63974.443282                       # average overall miss latency
system.cache_small.overall_avg_miss_latency::.cpu.inst 64491.182695                       # average overall miss latency
system.cache_small.overall_avg_miss_latency::.cpu.data 63073.010664                       # average overall miss latency
system.cache_small.overall_avg_miss_latency::total 63974.443282                       # average overall miss latency
system.cache_small.blocked_cycles::no_mshrs            0                       # number of cycles access was blocked
system.cache_small.blocked_cycles::no_targets            0                       # number of cycles access was blocked
system.cache_small.blocked::no_mshrs                0                       # number of cycles access was blocked
system.cache_small.blocked::no_targets              0                       # number of cycles access was blocked
system.cache_small.avg_blocked_cycles::no_mshrs          nan                       # average number of cycles each access was blocked
system.cache_small.avg_blocked_cycles::no_targets          nan                       # average number of cycles each access was blocked
system.cache_small.writebacks::.writebacks          892                       # number of writebacks
system.cache_small.writebacks::total              892                       # number of writebacks
system.cache_small.demand_mshr_misses::.cpu.inst         4253                       # number of demand (read+write) MSHR misses
system.cache_small.demand_mshr_misses::.cpu.data         2438                       # number of demand (read+write) MSHR misses
system.cache_small.demand_mshr_misses::total         6691                       # number of demand (read+write) MSHR misses
system.cache_small.overall_mshr_misses::.cpu.inst         4253                       # number of overall MSHR misses
system.cache_small.overall_mshr_misses::.cpu.data         2438                       # number of overall MSHR misses
system.cache_small.overall_mshr_misses::total         6691                       # number of overall MSHR misses
system.cache_small.demand_mshr_miss_latency::.cpu.inst    265775000                       # number of demand (read+write) MSHR miss cycles
system.cache_small.demand_mshr_miss_latency::.cpu.data    148896000                       # number of demand (read+write) MSHR miss cycles
system.cache_small.demand_mshr_miss_latency::total    414671000                       # number of demand (read+write) MSHR miss cycles
system.cache_small.overall_mshr_miss_latency::.cpu.inst    265775000                       # number of overall MSHR miss cycles
system.cache_small.overall_mshr_miss_latency::.cpu.data    148896000                       # number of overall MSHR miss cycles
system.cache_small.overall_mshr_miss_latency::total    414671000                       # number of overall MSHR miss cycles
system.cache_small.demand_mshr_miss_rate::.cpu.inst     0.288613                       # mshr miss rate for demand accesses
system.cache_small.demand_mshr_miss_rate::.cpu.data     0.622097                       # mshr miss rate for demand accesses
system.cache_small.demand_mshr_miss_rate::total     0.358671                       # mshr miss rate for demand accesses
system.cache_small.overall_mshr_miss_rate::.cpu.inst     0.288613                       # mshr miss rate for overall accesses
system.cache_small.overall_mshr_miss_rate::.cpu.data     0.622097                       # mshr miss rate for overall accesses
system.cache_small.overall_mshr_miss_rate::total     0.358671                       # mshr miss rate for overall accesses
system.cache_small.demand_avg_mshr_miss_latency::.cpu.inst 62491.182695                       # average overall mshr miss latency
system.cache_small.demand_avg_mshr_miss_latency::.cpu.data 61073.010664                       # average overall mshr miss latency
system.cache_small.demand_avg_mshr_miss_latency::total 61974.443282                       # average overall mshr miss latency
system.cache_small.overall_avg_mshr_miss_latency::.cpu.inst 62491.182695                       # average overall mshr miss latency
system.cache_small.overall_avg_mshr_miss_latency::.cpu.data 61073.010664                       # average overall mshr miss latency
system.cache_small.overall_avg_mshr_miss_latency::total 61974.443282                       # average overall mshr miss latency
system.cache_small.replacements                  5471                       # number of replacements
system.cache_small.ReadReq_hits::.cpu.inst        10483                       # number of ReadReq hits
system.cache_small.ReadReq_hits::.cpu.data         1481                       # number of ReadReq hits
system.cache_small.ReadReq_hits::total          11964                       # number of ReadReq hits
system.cache_small.ReadReq_misses::.cpu.inst         4253                       # number of ReadReq misses
system.cache_small.ReadReq_misses::.cpu.data         2438                       # number of ReadReq misses
system.cache_small.ReadReq_misses::total         6691                       # number of ReadReq misses
system.cache_small.ReadReq_miss_latency::.cpu.inst    274281000                       # number of ReadReq miss cycles
system.cache_small.ReadReq_miss_latency::.cpu.data    153772000                       # number of ReadReq miss cycles
system.cache_small.ReadReq_miss_latency::total    428053000                       # number of ReadReq miss cycles
system.cache_small.ReadReq_accesses::.cpu.inst        14736                       # number of ReadReq accesses(hits+misses)
system.cache_small.ReadReq_accesses::.cpu.data         3919                       # number of ReadReq accesses(hits+misses)
system.cache_small.ReadReq_accesses::total        18655                       # number of ReadReq accesses(hits+misses)
system.cache_small.ReadReq_miss_rate::.cpu.inst     0.288613                       # miss rate for ReadReq accesses
system.cache_small.ReadReq_miss_rate::.cpu.data     0.622097                       # miss rate for ReadReq accesses
system.cache_small.ReadReq_miss_rate::total     0.358671                       # miss rate for ReadReq accesses
system.cache_small.ReadReq_avg_miss_latency::.cpu.inst 64491.182695                       # average ReadReq miss latency
system.cache_small.ReadReq_avg_miss_latency::.cpu.data 63073.010664                       # average ReadReq miss latency
system.cache_small.ReadReq_avg_miss_latency::total 63974.443282                       # average ReadReq miss latency
system.cache_small.ReadReq_mshr_misses::.cpu.inst         4253                       # number of ReadReq MSHR misses
system.cache_small.ReadReq_mshr_misses::.cpu.data         2438                       # number of ReadReq MSHR misses
system.cache_small.ReadReq_mshr_misses::total         6691                       # number of ReadReq MSHR misses
system.cache_small.ReadReq_mshr_miss_latency::.cpu.inst    265775000                       # number of ReadReq MSHR miss cycles
system.cache_small.ReadReq_mshr_miss_latency::.cpu.data    148896000                       # number of ReadReq MSHR miss cycles
system.cache_small.ReadReq_mshr_miss_latency::total    414671000                       # number of ReadReq MSHR miss cycles
system.cache_small.ReadReq_mshr_miss_rate::.cpu.inst     0.288613                       # mshr miss rate for ReadReq accesses
system.cache_small.ReadReq_mshr_miss_rate::.cpu.data     0.622097                       # mshr miss rate for ReadReq accesses
system.cache_small.ReadReq_mshr_miss_rate::total     0.358671                       # mshr miss rate for ReadReq accesses
system.cache_small.ReadReq_avg_mshr_miss_latency::.cpu.inst 62491.182695                       # average ReadReq mshr miss latency
system.cache_small.ReadReq_avg_mshr_miss_latency::.cpu.data 61073.010664                       # average ReadReq mshr miss latency
system.cache_small.ReadReq_avg_mshr_miss_latency::total 61974.443282                       # average ReadReq mshr miss latency
system.cache_small.WritebackDirty_hits::.writebacks         2891                       # number of WritebackDirty hits
system.cache_small.WritebackDirty_hits::total         2891                       # number of WritebackDirty hits
system.cache_small.WritebackDirty_accesses::.writebacks         2891                       # number of WritebackDirty accesses(hits+misses)
system.cache_small.WritebackDirty_accesses::total         2891                       # number of WritebackDirty accesses(hits+misses)
system.cache_small.power_state.pwrStateResidencyTicks::UNDEFINED   4216462000                       # Cumulative time (in ticks) in various power states
system.cache_small.tags.tagsinuse         1625.158242                       # Cycle average of tags in use
system.cache_small.tags.total_refs              10630                       # Total number of references to valid blocks.
system.cache_small.tags.sampled_refs             5471                       # Sample count of references to valid blocks.
system.cache_small.tags.avg_refs             1.942972                       # Average number of references to valid blocks.
system.cache_small.tags.warmup_cycle            76000                       # Cycle when the warmup percentage was hit.
system.cache_small.tags.occ_blocks::.writebacks   156.907360                       # Average occupied blocks per requestor
system.cache_small.tags.occ_blocks::.cpu.inst   692.967934                       # Average occupied blocks per requestor
system.cache_small.tags.occ_blocks::.cpu.data   775.282948                       # Average occupied blocks per requestor
system.cache_small.tags.occ_percent::.writebacks     0.076615                       # Average percentage of cache occupancy
system.cache_small.tags.occ_percent::.cpu.inst     0.338363                       # Average percentage of cache occupancy
system.cache_small.tags.occ_percent::.cpu.data     0.378556                       # Average percentage of cache occupancy
system.cache_small.tags.occ_percent::total     0.793534                       # Average percentage of cache occupancy
system.cache_small.tags.occ_task_id_blocks::1024         1837                       # Occupied blocks per task id
system.cache_small.tags.age_task_id_blocks_1024::0           22                       # Occupied blocks per task id
system.cache_small.tags.age_task_id_blocks_1024::1           32                       # Occupied blocks per task id
system.cache_small.tags.age_task_id_blocks_1024::2          199                       # Occupied blocks per task id
system.cache_small.tags.age_task_id_blocks_1024::3         1584                       # Occupied blocks per task id
system.cache_small.tags.occ_task_id_percent::1024     0.896973                       # Percentage of cache occupancy per task id
system.cache_small.tags.tag_accesses            28854                       # Number of tag accesses
system.cache_small.tags.data_accesses           28854                       # Number of data accesses
system.cache_small.tags.power_state.pwrStateResidencyTicks::UNDEFINED   4216462000                       # Cumulative time (in ticks) in various power states
system.icache.demand_hits::.cpu.inst          1298896                       # number of demand (read+write) hits
system.icache.demand_hits::total              1298896                       # number of demand (read+write) hits
system.icache.overall_hits::.cpu.inst         1298896                       # number of overall hits
system.icache.overall_hits::total             1298896                       # number of overall hits
system.icache.demand_misses::.cpu.inst          20892                       # number of demand (read+write) misses
system.icache.demand_misses::total              20892                       # number of demand (read+write) misses
system.icache.overall_misses::.cpu.inst         20892                       # number of overall misses
system.icache.overall_misses::total             20892                       # number of overall misses
system.icache.demand_miss_latency::.cpu.inst    638364000                       # number of demand (read+write) miss cycles
system.icache.demand_miss_latency::total    638364000                       # number of demand (read+write) miss cycles
system.icache.overall_miss_latency::.cpu.inst    638364000                       # number of overall miss cycles
system.icache.overall_miss_latency::total    638364000                       # number of overall miss cycles
system.icache.demand_accesses::.cpu.inst      1319788                       # number of demand (read+write) accesses
system.icache.demand_accesses::total          1319788                       # number of demand (read+write) accesses
system.icache.overall_accesses::.cpu.inst      1319788                       # number of overall (read+write) accesses
system.icache.overall_accesses::total         1319788                       # number of overall (read+write) accesses
system.icache.demand_miss_rate::.cpu.inst     0.015830                       # miss rate for demand accesses
system.icache.demand_miss_rate::total        0.015830                       # miss rate for demand accesses
system.icache.overall_miss_rate::.cpu.inst     0.015830                       # miss rate for overall accesses
system.icache.overall_miss_rate::total       0.015830                       # miss rate for overall accesses
system.icache.demand_avg_miss_latency::.cpu.inst 30555.427915                       # average overall miss latency
system.icache.demand_avg_miss_latency::total 30555.427915                       # average overall miss latency
system.icache.overall_avg_miss_latency::.cpu.inst 30555.427915                       # average overall miss latency
system.icache.overall_avg_miss_latency::total 30555.427915                       # average overall miss latency
system.icache.blocked_cycles::no_mshrs              0                       # number of cycles access was blocked
system.icache.blocked_cycles::no_targets            0                       # number of cycles access was blocked
system.icache.blocked::no_mshrs                     0                       # number of cycles access was blocked
system.icache.blocked::no_targets                   0                       # number of cycles access was blocked
system.icache.avg_blocked_cycles::no_mshrs          nan                       # average number of cycles each access was blocked
system.icache.avg_blocked_cycles::no_targets          nan                       # average number of cycles each access was blocked
system.icache.demand_mshr_misses::.cpu.inst        20892                       # number of demand (read+write) MSHR misses
system.icache.demand_mshr_misses::total         20892                       # number of demand (read+write) MSHR misses
system.icache.overall_mshr_misses::.cpu.inst        20892                       # number of overall MSHR misses
system.icache.overall_mshr_misses::total        20892                       # number of overall MSHR misses
system.icache.demand_mshr_miss_latency::.cpu.inst    596582000                       # number of demand (read+write) MSHR miss cycles
system.icache.demand_mshr_miss_latency::total    596582000                       # number of demand (read+write) MSHR miss cycles
system.icache.overall_mshr_miss_latency::.cpu.inst    596582000                       # number of overall MSHR miss cycles
system.icache.overall_mshr_miss_latency::total    596582000                       # number of overall MSHR miss cycles
system.icache.demand_mshr_miss_rate::.cpu.inst     0.015830                       # mshr miss rate for demand accesses
system.icache.demand_mshr_miss_rate::total     0.015830                       # mshr miss rate for demand accesses
system.icache.overall_mshr_miss_rate::.cpu.inst     0.015830                       # mshr miss rate for overall accesses
system.icache.overall_mshr_miss_rate::total     0.015830                       # mshr miss rate for overall accesses
system.icache.demand_avg_mshr_miss_latency::.cpu.inst 28555.523645                       # average overall mshr miss latency
system.icache.demand_avg_mshr_miss_latency::total 28555.523645                       # average overall mshr miss latency
system.icache.overall_avg_mshr_miss_latency::.cpu.inst 28555.523645                       # average overall mshr miss latency
system.icache.overall_avg_mshr_miss_latency::total 28555.523645                       # average overall mshr miss latency
system.icache.replacements                      20635                       # number of replacements
system.icache.ReadReq_hits::.cpu.inst         1298896                       # number of ReadReq hits
system.icache.ReadReq_hits::total             1298896                       # number of ReadReq hits
system.icache.ReadReq_misses::.cpu.inst         20892                       # number of ReadReq misses
system.icache.ReadReq_misses::total             20892                       # number of ReadReq misses
system.icache.ReadReq_miss_latency::.cpu.inst    638364000                       # number of ReadReq miss cycles
system.icache.ReadReq_miss_latency::total    638364000                       # number of ReadReq miss cycles
system.icache.ReadReq_accesses::.cpu.inst      1319788                       # number of ReadReq accesses(hits+misses)
system.icache.ReadReq_accesses::total         1319788                       # number of ReadReq accesses(hits+misses)
system.icache.ReadReq_miss_rate::.cpu.inst     0.015830                       # miss rate for ReadReq accesses
system.icache.ReadReq_miss_rate::total       0.015830                       # miss rate for ReadReq accesses
system.icache.ReadReq_avg_miss_latency::.cpu.inst 30555.427915                       # average ReadReq miss latency
system.icache.ReadReq_avg_miss_latency::total 30555.427915                       # average ReadReq miss latency
system.icache.ReadReq_mshr_misses::.cpu.inst        20892                       # number of ReadReq MSHR misses
system.icache.ReadReq_mshr_misses::total        20892                       # number of ReadReq MSHR misses
system.icache.ReadReq_mshr_miss_latency::.cpu.inst    596582000                       # number of ReadReq MSHR miss cycles
system.icache.ReadReq_mshr_miss_latency::total    596582000                       # number of ReadReq MSHR miss cycles
system.icache.ReadReq_mshr_miss_rate::.cpu.inst     0.015830                       # mshr miss rate for ReadReq accesses
system.icache.ReadReq_mshr_miss_rate::total     0.015830                       # mshr miss rate for ReadReq accesses
system.icache.ReadReq_avg_mshr_miss_latency::.cpu.inst 28555.523645                       # average ReadReq mshr miss latency
system.icache.ReadReq_avg_mshr_miss_latency::total 28555.523645                       # average ReadReq mshr miss latency
system.icache.power_state.pwrStateResidencyTicks::UNDEFINED   4216462000                       # Cumulative time (in ticks) in various power states
system.icache.tags.tagsinuse               252.062296                       # Cycle average of tags in use
system.icache.tags.total_refs                 1130960                       # Total number of references to valid blocks.
system.icache.tags.sampled_refs                 20635                       # Sample count of references to valid blocks.
system.icache.tags.avg_refs                 54.807851                       # Average number of references to valid blocks.
system.icache.tags.warmup_cycle                 82000                       # Cycle when the warmup percentage was hit.
system.icache.tags.occ_blocks::.cpu.inst   252.062296                       # Average occupied blocks per requestor
system.icache.tags.occ_percent::.cpu.inst     0.984618                       # Average percentage of cache occupancy
system.icache.tags.occ_percent::total        0.984618                       # Average percentage of cache occupancy
system.icache.tags.occ_task_id_blocks::1024          256                       # Occupied blocks per task id
system.icache.tags.age_task_id_blocks_1024::0           45                       # Occupied blocks per task id
system.icache.tags.age_task_id_blocks_1024::1           22                       # Occupied blocks per task id
system.icache.tags.age_task_id_blocks_1024::2           44                       # Occupied blocks per task id
system.icache.tags.age_task_id_blocks_1024::3          145                       # Occupied blocks per task id
system.icache.tags.occ_task_id_percent::1024            1                       # Percentage of cache occupancy per task id
system.icache.tags.tag_accesses               1340679                       # Number of tag accesses
system.icache.tags.data_accesses              1340679                       # Number of data accesses
system.icache.tags.power_state.pwrStateResidencyTicks::UNDEFINED   4216462000                       # Cumulative time (in ticks) in various power states
system.membus.trans_dist::ReadReq                6691                       # Transaction distribution
system.membus.trans_dist::ReadResp               6691                       # Transaction distribution
system.membus.trans_dist::WritebackDirty          892                       # Transaction distribution
system.membus.pkt_count_system.cache_small.mem_side::system.mem_ctrl.port        14274                       # Packet count per connected master and slave (bytes)
system.membus.pkt_count_system.cache_small.mem_side::total        14274                       # Packet count per connected master and slave (bytes)
system.membus.pkt_count::total                  14274                       # Packet count per connected master and slave (bytes)
system.membus.pkt_size_system.cache_small.mem_side::system.mem_ctrl.port       485312                       # Cumulative packet size per connected master and slave (bytes)
system.membus.pkt_size_system.cache_small.mem_side::total       485312                       # Cumulative packet size per connected master and slave (bytes)
system.membus.pkt_size::total                  485312                       # Cumulative packet size per connected master and slave (bytes)
system.membus.reqLayer2.occupancy            11151000                       # Layer occupancy (ticks)
system.membus.reqLayer2.utilization               0.3                       # Layer utilization (%)
system.membus.respLayer1.occupancy           36044750                       # Layer occupancy (ticks)
system.membus.respLayer1.utilization              0.9                       # Layer utilization (%)
system.membus.power_state.pwrStateResidencyTicks::UNDEFINED   4216462000                       # Cumulative time (in ticks) in various power states
system.mem_ctrl.bytes_read::.cpu.inst          272192                       # Number of bytes read from this memory
system.mem_ctrl.bytes_read::.cpu.data          156032                       # Number of bytes read from this memory
system.mem_ctrl.bytes_read::total              428224                       # Number of bytes read from this memory
system.mem_ctrl.bytes_inst_read::.cpu.inst       272192                       # Number of instructions bytes read from this memory
system.mem_ctrl.bytes_inst_read::total         272192                       # Number of instructions bytes read from this memory
system.mem_ctrl.bytes_written::.writebacks        57088                       # Number of bytes written to this memory
system.mem_ctrl.bytes_written::total            57088                       # Number of bytes written to this memory
system.mem_ctrl.num_reads::.cpu.inst             4253                       # Number of read requests responded to by this memory
system.mem_ctrl.num_reads::.cpu.data             2438                       # Number of read requests responded to by this memory
system.mem_ctrl.num_reads::total                 6691                       # Number of read requests responded to by this memory
system.mem_ctrl.num_writes::.writebacks           892                       # Number of write requests responded to by this memory
system.mem_ctrl.num_writes::total                 892                       # Number of write requests responded to by this memory
system.mem_ctrl.bw_read::.cpu.inst           64554596                       # Total read bandwidth from this memory (bytes/s)
system.mem_ctrl.bw_read::.cpu.data           37005433                       # Total read bandwidth from this memory (bytes/s)
system.mem_ctrl.bw_read::total              101560028                       # Total read bandwidth from this memory (bytes/s)
system.mem_ctrl.bw_inst_read::.cpu.inst      64554596                       # Instruction read bandwidth from this memory (bytes/s)
system.mem_ctrl.bw_inst_read::total          64554596                       # Instruction read bandwidth from this memory (bytes/s)
system.mem_ctrl.bw_write::.writebacks        13539313                       # Write bandwidth from this memory (bytes/s)
system.mem_ctrl.bw_write::total              13539313                       # Write bandwidth from this memory (bytes/s)
system.mem_ctrl.bw_total::.writebacks        13539313                       # Total bandwidth to/from this memory (bytes/s)
system.mem_ctrl.bw_total::.cpu.inst          64554596                       # Total bandwidth to/from this memory (bytes/s)
system.mem_ctrl.bw_total::.cpu.data          37005433                       # Total bandwidth to/from this memory (bytes/s)
system.mem_ctrl.bw_total::total             115099342                       # Total bandwidth to/from this memory (bytes/s)
system.mem_ctrl.avgPriority_.writebacks::samples       829.00                       # Average QoS priority value for accepted requests
system.mem_ctrl.avgPriority_.cpu.inst::samples      4253.00                       # Average QoS priority value for accepted requests
system.mem_ctrl.avgPriority_.cpu.data::samples      2391.00                       # Average QoS priority value for accepted requests
system.mem_ctrl.priorityMinLatency       0.000000018750                       # per QoS priority minimum request to response latency (s)
system.mem_ctrl.priorityMaxLatency       0.002819804500                       # per QoS priority maximum request to response latency (s)
system.mem_ctrl.numReadWriteTurnArounds            46                       # Number of turnarounds from READ to WRITE
system.mem_ctrl.numWriteReadTurnArounds            46                       # Number of turnarounds from WRITE to READ
system.mem_ctrl.numStayReadState                15249                       # Number of times bus staying in READ state
system.mem_ctrl.numStayWriteState                 764                       # Number of times bus staying in WRITE state
system.mem_ctrl.readReqs                         6691                       # Number of read requests accepted
system.mem_ctrl.writeReqs                         892                       # Number of write requests accepted
system.mem_ctrl.readBursts                       6691                       # Number of DRAM read bursts, including those serviced by the write queue
system.mem_ctrl.writeBursts                       892                       # Number of DRAM write bursts, including those merged in the write queue
system.mem_ctrl.servicedByWrQ                      47                       # Number of DRAM read bursts serviced by the write queue
system.mem_ctrl.mergedWrBursts                     63                       # Number of DRAM write bursts merged with an existing one
system.mem_ctrl.neitherReadNorWriteReqs             0                       # Number of requests that are neither read nor write
system.mem_ctrl.perBankRdBursts::0                655                       # Per bank write bursts
system.mem_ctrl.perBankRdBursts::1                523                       # Per bank write bursts
system.mem_ctrl.perBankRdBursts::2                353                       # Per bank write bursts
system.mem_ctrl.perBankRdBursts::3                 82                       # Per bank write bursts
system.mem_ctrl.perBankRdBursts::4                192                       # Per bank write bursts
system.mem_ctrl.perBankRdBursts::5                339                       # Per bank write bursts
system.mem_ctrl.perBankRdBursts::6                148                       # Per bank write bursts
system.mem_ctrl.perBankRdBursts::7                556                       # Per bank write bursts
system.mem_ctrl.perBankRdBursts::8                148                       # Per bank write bursts
system.mem_ctrl.perBankRdBursts::9                222                       # Per bank write bursts
system.mem_ctrl.perBankRdBursts::10               127                       # Per bank write bursts
system.mem_ctrl.perBankRdBursts::11               664                       # Per bank write bursts
system.mem_ctrl.perBankRdBursts::12               366                       # Per bank write bursts
system.mem_ctrl.perBankRdBursts::13               911                       # Per bank write bursts
system.mem_ctrl.perBankRdBursts::14               269                       # Per bank write bursts
system.mem_ctrl.perBankRdBursts::15              1089                       # Per bank write bursts
system.mem_ctrl.perBankWrBursts::0                123                       # Per bank write bursts
system.mem_ctrl.perBankWrBursts::1                 77                       # Per bank write bursts
system.mem_ctrl.perBankWrBursts::2                  1                       # Per bank write bursts
system.mem_ctrl.perBankWrBursts::3                  1                       # Per bank write bursts
system.mem_ctrl.perBankWrBursts::4                  5                       # Per bank write bursts
system.mem_ctrl.perBankWrBursts::5                 45                       # Per bank write bursts
system.mem_ctrl.perBankWrBursts::6                  8                       # Per bank write bursts
system.mem_ctrl.perBankWrBursts::7                 98                       # Per bank write bursts
system.mem_ctrl.perBankWrBursts::8                 10                       # Per bank write bursts
system.mem_ctrl.perBankWrBursts::9                 53                       # Per bank write bursts
system.mem_ctrl.perBankWrBursts::10                23                       # Per bank write bursts
system.mem_ctrl.perBankWrBursts::11               100                       # Per bank write bursts
system.mem_ctrl.perBankWrBursts::12                46                       # Per bank write bursts
system.mem_ctrl.perBankWrBursts::13                59                       # Per bank write bursts
system.mem_ctrl.perBankWrBursts::14                56                       # Per bank write bursts
system.mem_ctrl.perBankWrBursts::15               105                       # Per bank write bursts
system.mem_ctrl.avgRdQLen                        1.00                       # Average read queue length when enqueuing
system.mem_ctrl.avgWrQLen                       22.92                       # Average write queue length when enqueuing
system.mem_ctrl.totQLat                      80538000                       # Total ticks spent queuing
system.mem_ctrl.totBusLat                    33220000                       # Total ticks spent in databus transfers
system.mem_ctrl.totMemAccLat                205113000                       # Total ticks spent from burst creation until serviced by the DRAM
system.mem_ctrl.avgQLat                      12121.91                       # Average queueing delay per DRAM burst
system.mem_ctrl.avgBusLat                     5000.00                       # Average bus latency per DRAM burst
system.mem_ctrl.avgMemAccLat                 30871.91                       # Average memory access latency per DRAM burst
system.mem_ctrl.numRdRetry                          0                       # Number of times read queue was full causing retry
system.mem_ctrl.numWrRetry                          0                       # Number of times write queue was full causing retry
system.mem_ctrl.readRowHits                      3707                       # Number of row buffer hits during reads
system.mem_ctrl.writeRowHits                      626                       # Number of row buffer hits during writes
system.mem_ctrl.readRowHitRate                  55.79                       # Row buffer hit rate for reads
system.mem_ctrl.writeRowHitRate                 75.51                       # Row buffer hit rate for writes
system.mem_ctrl.readPktSize::0                      0                       # Read request sizes (log2)
system.mem_ctrl.readPktSize::1                      0                       # Read request sizes (log2)
system.mem_ctrl.readPktSize::2                      0                       # Read request sizes (log2)
system.mem_ctrl.readPktSize::3                      0                       # Read request sizes (log2)
system.mem_ctrl.readPktSize::4                      0                       # Read request sizes (log2)
system.mem_ctrl.readPktSize::5                      0                       # Read request sizes (log2)
system.mem_ctrl.readPktSize::6                   6691                       # Read request sizes (log2)
system.mem_ctrl.writePktSize::0                     0                       # Write request sizes (log2)
system.mem_ctrl.writePktSize::1                     0                       # Write request sizes (log2)
system.mem_ctrl.writePktSize::2                     0                       # Write request sizes (log2)
system.mem_ctrl.writePktSize::3                     0                       # Write request sizes (log2)
system.mem_ctrl.writePktSize::4                     0                       # Write request sizes (log2)
system.mem_ctrl.writePktSize::5                     0                       # Write request sizes (log2)
system.mem_ctrl.writePktSize::6                   892                       # Write request sizes (log2)
system.mem_ctrl.rdQLenPdf::0                     6642                       # What read queue length does an incoming req see
system.mem_ctrl.rdQLenPdf::1                        2                       # What read queue length does an incoming req see
system.mem_ctrl.rdQLenPdf::2                        0                       # What read queue length does an incoming req see
system.mem_ctrl.rdQLenPdf::3                        0                       # What read queue length does an incoming req see
system.mem_ctrl.rdQLenPdf::4                        0                       # What read queue length does an incoming req see
system.mem_ctrl.rdQLenPdf::5                        0                       # What read queue length does an incoming req see
system.mem_ctrl.rdQLenPdf::6                        0                       # What read queue length does an incoming req see
system.mem_ctrl.rdQLenPdf::7                        0                       # What read queue length does an incoming req see
system.mem_ctrl.rdQLenPdf::8                        0                       # What read queue length does an incoming req see
system.mem_ctrl.rdQLenPdf::9                        0                       # What read queue length does an incoming req see
system.mem_ctrl.rdQLenPdf::10                       0                       # What read queue length does an incoming req see
system.mem_ctrl.rdQLenPdf::11                       0                       # What read queue length does an incoming req see
system.mem_ctrl.rdQLenPdf::12                       0                       # What read queue length does an incoming req see
system.mem_ctrl.rdQLenPdf::13                       0                       # What read queue length does an incoming req see
system.mem_ctrl.rdQLenPdf::14                       0                       # What read queue length does an incoming req see
system.mem_ctrl.rdQLenPdf::15                       0                       # What read queue length does an incoming req see
system.mem_ctrl.rdQLenPdf::16                       0                       # What read queue length does an incoming req see
system.mem_ctrl.rdQLenPdf::17                       0                       # What read queue length does an incoming req see
system.mem_ctrl.rdQLenPdf::18                       0                       # What read queue length does an incoming req see
system.mem_ctrl.rdQLenPdf::19                       0                       # What read queue length does an incoming req see
system.mem_ctrl.rdQLenPdf::20                       0                       # What read queue length does an incoming req see
system.mem_ctrl.rdQLenPdf::21                       0                       # What read queue length does an incoming req see
system.mem_ctrl.rdQLenPdf::22                       0                       # What read queue length does an incoming req see
system.mem_ctrl.rdQLenPdf::23                       0                       # What read queue length does an incoming req see
system.mem_ctrl.rdQLenPdf::24                       0                       # What read queue length does an incoming req see
system.mem_ctrl.rdQLenPdf::25                       0                       # What read queue length does an incoming req see
system.mem_ctrl.rdQLenPdf::26                       0                       # What read queue length does an incoming req see
system.mem_ctrl.rdQLenPdf::27                       0                       # What read queue length does an incoming req see
system.mem_ctrl.rdQLenPdf::28                       0                       # What read queue length does an incoming req see
system.mem_ctrl.rdQLenPdf::29                       0                       # What read queue length does an incoming req see
system.mem_ctrl.rdQLenPdf::30                       0                       # What read queue length does an incoming req see
system.mem_ctrl.rdQLenPdf::31                       0                       # What read queue length does an incoming req see
system.mem_ctrl.wrQLenPdf::0                        1                       # What write queue length does an incoming req see
system.mem_ctrl.wrQLenPdf::1                        1                       # What write queue length does an incoming req see
system.mem_ctrl.wrQLenPdf::2                        1                       # What write queue length does an incoming req see
system.mem_ctrl.wrQLenPdf::3                        1                       # What write queue length does an incoming req see
system.mem_ctrl.wrQLenPdf::4                        1                       # What write queue length does an incoming req see
system.mem_ctrl.wrQLenPdf::5                        1                       # What write queue length does an incoming req see
system.mem_ctrl.wrQLenPdf::6                        1                       # What write queue length does an incoming req see
system.mem_ctrl.wrQLenPdf::7                        1                       # What write queue length does an incoming req see
system.mem_ctrl.wrQLenPdf::8                        1                       # What write queue length does an incoming req see
system.mem_ctrl.wrQLenPdf::9                        1                       # What write queue length does an incoming req see
system.mem_ctrl.wrQLenPdf::10                       1                       # What write queue length does an incoming req see
system.mem_ctrl.wrQLenPdf::11                       1                       # What write queue length does an incoming req see
system.mem_ctrl.wrQLenPdf::12                       1                       # What write queue length does an incoming req see
system.mem_ctrl.wrQLenPdf::13                       1                       # What write queue length does an incoming req see
system.mem_ctrl.wrQLenPdf::14                       1                       # What write queue length does an incoming req see
system.mem_ctrl.wrQLenPdf::15                      37                       # What write queue length does an incoming req see
system.mem_ctrl.wrQLenPdf::16                      38                       # What write queue length does an incoming req see
system.mem_ctrl.wrQLenPdf::17                      47                       # What write queue length does an incoming req see
system.mem_ctrl.wrQLenPdf::18                      47                       # What write queue length does an incoming req see
system.mem_ctrl.wrQLenPdf::19                      47                       # What write queue length does an incoming req see
system.mem_ctrl.wrQLenPdf::20                      46                       # What write queue length does an incoming req see
system.mem_ctrl.wrQLenPdf::21                      46                       # What write queue length does an incoming req see
system.mem_ctrl.wrQLenPdf::22                      46                       # What write queue length does an incoming req see
system.mem_ctrl.wrQLenPdf::23                      46                       # What write queue length does an incoming req see
system.mem_ctrl.wrQLenPdf::24                      46                       # What write queue length does an incoming req see
system.mem_ctrl.wrQLenPdf::25                      46                       # What write queue length does an incoming req see
system.mem_ctrl.wrQLenPdf::26                      46                       # What write queue length does an incoming req see
system.mem_ctrl.wrQLenPdf::27                      46                       # What write queue length does an incoming req see
system.mem_ctrl.wrQLenPdf::28                      46                       # What write queue length does an incoming req see
system.mem_ctrl.wrQLenPdf::29                      46                       # What write queue length does an incoming req see
system.mem_ctrl.wrQLenPdf::30                      46                       # What write queue length does an incoming req see
system.mem_ctrl.wrQLenPdf::31                      46                       # What write queue length does an incoming req see
system.mem_ctrl.wrQLenPdf::32                      46                       # What write queue length does an incoming req see
system.mem_ctrl.wrQLenPdf::33                       0                       # What write queue length does an incoming req see
system.mem_ctrl.wrQLenPdf::34                       0                       # What write queue length does an incoming req see
system.mem_ctrl.wrQLenPdf::35                       0                       # What write queue length does an incoming req see
system.mem_ctrl.wrQLenPdf::36                       0                       # What write queue length does an incoming req see
system.mem_ctrl.wrQLenPdf::37                       0                       # What write queue length does an incoming req see
system.mem_ctrl.wrQLenPdf::38                       0                       # What write queue length does an incoming req see
system.mem_ctrl.wrQLenPdf::39                       0                       # What write queue length does an incoming req see
system.mem_ctrl.wrQLenPdf::40                       0                       # What write queue length does an incoming req see
system.mem_ctrl.wrQLenPdf::41                       0                       # What write queue length does an incoming req see
system.mem_ctrl.wrQLenPdf::42                       0                       # What write queue length does an incoming req see
system.mem_ctrl.wrQLenPdf::43                       0                       # What write queue length does an incoming req see
system.mem_ctrl.wrQLenPdf::44                       0                       # What write queue length does an incoming req see
system.mem_ctrl.wrQLenPdf::45                       0                       # What write queue length does an incoming req see
system.mem_ctrl.wrQLenPdf::46                       0                       # What write queue length does an incoming req see
system.mem_ctrl.wrQLenPdf::47                       0                       # What write queue length does an incoming req see
system.mem_ctrl.wrQLenPdf::48                       0                       # What write queue length does an incoming req see
system.mem_ctrl.wrQLenPdf::49                       0                       # What write queue length does an incoming req see
system.mem_ctrl.wrQLenPdf::50                       0                       # What write queue length does an incoming req see
system.mem_ctrl.wrQLenPdf::51                       0                       # What write queue length does an incoming req see
system.mem_ctrl.wrQLenPdf::52                       0                       # What write queue length does an incoming req see
system.mem_ctrl.wrQLenPdf::53                       0                       # What write queue length does an incoming req see
system.mem_ctrl.wrQLenPdf::54                       0                       # What write queue length does an incoming req see
system.mem_ctrl.wrQLenPdf::55                       0                       # What write queue length does an incoming req see
system.mem_ctrl.wrQLenPdf::56                       0                       # What write queue length does an incoming req see
system.mem_ctrl.wrQLenPdf::57                       0                       # What write queue length does an incoming req see
system.mem_ctrl.wrQLenPdf::58                       0                       # What write queue length does an incoming req see
system.mem_ctrl.wrQLenPdf::59                       0                       # What write queue length does an incoming req see
system.mem_ctrl.wrQLenPdf::60                       0                       # What write queue length does an incoming req see
system.mem_ctrl.wrQLenPdf::61                       0                       # What write queue length does an incoming req see
system.mem_ctrl.wrQLenPdf::62                       0                       # What write queue length does an incoming req see
system.mem_ctrl.wrQLenPdf::63                       0                       # What write queue length does an incoming req see
system.mem_ctrl.bytesPerActivate::samples         3118                       # Bytes accessed per row activation
system.mem_ctrl.bytesPerActivate::mean     152.856960                       # Bytes accessed per row activation
system.mem_ctrl.bytesPerActivate::gmean    116.963759                       # Bytes accessed per row activation
system.mem_ctrl.bytesPerActivate::stdev    150.927797                       # Bytes accessed per row activation
system.mem_ctrl.bytesPerActivate::0-127          1371     43.97%     43.97% # Bytes accessed per row activation
system.mem_ctrl.bytesPerActivate::128-255         1296     41.57%     85.54% # Bytes accessed per row activation
system.mem_ctrl.bytesPerActivate::256-383          238      7.63%     93.17% # Bytes accessed per row activation
system.mem_ctrl.bytesPerActivate::384-511           77      2.47%     95.64% # Bytes accessed per row activation
system.mem_ctrl.bytesPerActivate::512-639           41      1.31%     96.95% # Bytes accessed per row activation
system.mem_ctrl.bytesPerActivate::640-767           35      1.12%     98.08% # Bytes accessed per row activation
system.mem_ctrl.bytesPerActivate::768-895           26      0.83%     98.91% # Bytes accessed per row activation
system.mem_ctrl.bytesPerActivate::896-1023           11      0.35%     99.26% # Bytes accessed per row activation
system.mem_ctrl.bytesPerActivate::1024-1151           23      0.74%    100.00% # Bytes accessed per row activation
system.mem_ctrl.bytesPerActivate::total          3118                       # Bytes accessed per row activation
system.mem_ctrl.rdPerTurnAround::samples           46                       # Reads before turning the bus around for writes
system.mem_ctrl.rdPerTurnAround::mean      142.586957                       # Reads before turning the bus around for writes
system.mem_ctrl.rdPerTurnAround::gmean      71.437796                       # Reads before turning the bus around for writes
system.mem_ctrl.rdPerTurnAround::stdev     265.382037                       # Reads before turning the bus around for writes
system.mem_ctrl.rdPerTurnAround::0-63              29     63.04%     63.04% # Reads before turning the bus around for writes
system.mem_ctrl.rdPerTurnAround::64-127             5     10.87%     73.91% # Reads before turning the bus around for writes
system.mem_ctrl.rdPerTurnAround::128-191            4      8.70%     82.61% # Reads before turning the bus around for writes
system.mem_ctrl.rdPerTurnAround::192-255            3      6.52%     89.13% # Reads before turning the bus around for writes
system.mem_ctrl.rdPerTurnAround::256-319            1      2.17%     91.30% # Reads before turning the bus around for writes
system.mem_ctrl.rdPerTurnAround::320-383            1      2.17%     93.48% # Reads before turning the bus around for writes
system.mem_ctrl.rdPerTurnAround::576-639            1      2.17%     95.65% # Reads before turning the bus around for writes
system.mem_ctrl.rdPerTurnAround::896-959            1      2.17%     97.83% # Reads before turning the bus around for writes
system.mem_ctrl.rdPerTurnAround::1472-1535            1      2.17%    100.00% # Reads before turning the bus around for writes
system.mem_ctrl.rdPerTurnAround::total             46                       # Reads before turning the bus around for writes
system.mem_ctrl.wrPerTurnAround::samples           46                       # Writes before turning the bus around for reads
system.mem_ctrl.wrPerTurnAround::mean       17.608696                       # Writes before turning the bus around for reads
system.mem_ctrl.wrPerTurnAround::gmean      17.588760                       # Writes before turning the bus around for reads
system.mem_ctrl.wrPerTurnAround::stdev       0.829411                       # Writes before turning the bus around for reads
system.mem_ctrl.wrPerTurnAround::16                 9     19.57%     19.57% # Writes before turning the bus around for reads
system.mem_ctrl.wrPerTurnAround::17                 1      2.17%     21.74% # Writes before turning the bus around for reads
system.mem_ctrl.wrPerTurnAround::18                35     76.09%     97.83% # Writes before turning the bus around for reads
system.mem_ctrl.wrPerTurnAround::19                 1      2.17%    100.00% # Writes before turning the bus around for reads
system.mem_ctrl.wrPerTurnAround::total             46                       # Writes before turning the bus around for reads
system.mem_ctrl.bytesReadDRAM                  425216                       # Total number of bytes read from DRAM
system.mem_ctrl.bytesReadWrQ                     3008                       # Total number of bytes read from write queue
system.mem_ctrl.bytesWritten                    51840                       # Total number of bytes written to DRAM
system.mem_ctrl.bytesReadSys                   428224                       # Total read bytes from the system interface side
system.mem_ctrl.bytesWrittenSys                 57088                       # Total written bytes from the system interface side
system.mem_ctrl.avgRdBW                        100.85                       # Average DRAM read bandwidth in MiByte/s
system.mem_ctrl.avgWrBW                         12.29                       # Average achieved write bandwidth in MiByte/s
system.mem_ctrl.avgRdBWSys                     101.56                       # Average system read bandwidth in MiByte/s
system.mem_ctrl.avgWrBWSys                      13.54                       # Average system write bandwidth in MiByte/s
system.mem_ctrl.peakBW                       12800.00                       # Theoretical peak bandwidth in MiByte/s
system.mem_ctrl.busUtil                          0.88                       # Data bus utilization in percentage
system.mem_ctrl.busUtilRead                      0.79                       # Data bus utilization in percentage for reads
system.mem_ctrl.busUtilWrite                     0.10                       # Data bus utilization in percentage for writes
system.mem_ctrl.totGap                     4215417000                       # Total gap between requests
system.mem_ctrl.avgGap                      555903.60                       # Average gap between requests
system.mem_ctrl.masterReadBytes::.cpu.inst       272192                       # Per-master bytes read from memory
system.mem_ctrl.masterReadBytes::.cpu.data       153024                       # Per-master bytes read from memory
system.mem_ctrl.masterWriteBytes::.writebacks        51840                       # Per-master bytes write to memory
system.mem_ctrl.masterReadRate::.cpu.inst 64554595.772474654019                       # Per-master bytes read from memory rate (Bytes/sec)
system.mem_ctrl.masterReadRate::.cpu.data 36292038.206439428031                       # Per-master bytes read from memory rate (Bytes/sec)
system.mem_ctrl.masterWriteRate::.writebacks 12294667.899295665324                       # Per-master bytes write to memory rate (Bytes/sec)
system.mem_ctrl.masterReadAccesses::.cpu.inst         4253                       # Per-master read serviced memory accesses
system.mem_ctrl.masterReadAccesses::.cpu.data         2438                       # Per-master read serviced memory accesses
system.mem_ctrl.masterWriteAccesses::.writebacks          892                       # Per-master write serviced memory accesses
system.mem_ctrl.masterReadTotalLat::.cpu.inst    132206750                       # Per-master read total memory access latency
system.mem_ctrl.masterReadTotalLat::.cpu.data     72906250                       # Per-master read total memory access latency
system.mem_ctrl.masterWriteTotalLat::.writebacks  85264190000                       # Per-master write total memory access latency
system.mem_ctrl.masterReadAvgLat::.cpu.inst     31085.53                       # Per-master read average memory access latency
system.mem_ctrl.masterReadAvgLat::.cpu.data     29904.12                       # Per-master read average memory access latency
system.mem_ctrl.masterWriteAvgLat::.writebacks  95587656.95                       # Per-master write average memory access latency
system.mem_ctrl.pageHitRate                     57.98                       # Row buffer hit rate, read and write combined
system.mem_ctrl.rank1.actEnergy              12873420                       # Energy for activate commands per rank (pJ)
system.mem_ctrl.rank1.preEnergy               6831000                       # Energy for precharge commands per rank (pJ)
system.mem_ctrl.rank1.readEnergy             27103440                       # Energy for read commands per rank (pJ)
system.mem_ctrl.rank1.writeEnergy             2359440                       # Energy for write commands per rank (pJ)
system.mem_ctrl.rank1.refreshEnergy      332520240.000000                       # Energy for refresh commands per rank (pJ)
system.mem_ctrl.rank1.actBackEnergy        1545620550                       # Energy for active background per rank (pJ)
system.mem_ctrl.rank1.preBackEnergy         317546400                       # Energy for precharge background per rank (pJ)
system.mem_ctrl.rank1.actPowerDownEnergy            0                       # Energy for active power-down per rank (pJ)
system.mem_ctrl.rank1.prePowerDownEnergy            0                       # Energy for precharge power-down per rank (pJ)
system.mem_ctrl.rank1.selfRefreshEnergy             0                       # Energy for self refresh per rank (pJ)
system.mem_ctrl.rank1.totalEnergy          2244854490                       # Total energy per rank (pJ)
system.mem_ctrl.rank1.averagePower         532.402400                       # Core power per rank (mW)
system.mem_ctrl.rank1.totalIdleTime                 0                       # Total Idle time Per DRAM Rank
system.mem_ctrl.rank1.memoryStateTime::IDLE    810122750                       # Time in different power states
system.mem_ctrl.rank1.memoryStateTime::REF    140660000                       # Time in different power states
system.mem_ctrl.rank1.memoryStateTime::SREF            0                       # Time in different power states
system.mem_ctrl.rank1.memoryStateTime::PRE_PDN            0                       # Time in different power states
system.mem_ctrl.rank1.memoryStateTime::ACT   3265679250                       # Time in different power states
system.mem_ctrl.rank1.memoryStateTime::ACT_PDN            0                       # Time in different power states
system.mem_ctrl.rank0.actEnergy               9410520                       # Energy for activate commands per rank (pJ)
system.mem_ctrl.rank0.preEnergy               5001810                       # Energy for precharge commands per rank (pJ)
system.mem_ctrl.rank0.readEnergy             20334720                       # Energy for read commands per rank (pJ)
system.mem_ctrl.rank0.writeEnergy             1868760                       # Energy for write commands per rank (pJ)
system.mem_ctrl.rank0.refreshEnergy      332520240.000000                       # Energy for refresh commands per rank (pJ)
system.mem_ctrl.rank0.actBackEnergy        1199821500                       # Energy for active background per rank (pJ)
system.mem_ctrl.rank0.preBackEnergy         608745600                       # Energy for precharge background per rank (pJ)
system.mem_ctrl.rank0.actPowerDownEnergy            0                       # Energy for active power-down per rank (pJ)
system.mem_ctrl.rank0.prePowerDownEnergy            0                       # Energy for precharge power-down per rank (pJ)
system.mem_ctrl.rank0.selfRefreshEnergy             0                       # Energy for self refresh per rank (pJ)
system.mem_ctrl.rank0.totalEnergy          2177703150                       # Total energy per rank (pJ)
system.mem_ctrl.rank0.averagePower         516.476408                       # Core power per rank (mW)
system.mem_ctrl.rank0.totalIdleTime                 0                       # Total Idle time Per DRAM Rank
system.mem_ctrl.rank0.memoryStateTime::IDLE   1569724750                       # Time in different power states
system.mem_ctrl.rank0.memoryStateTime::REF    140660000                       # Time in different power states
system.mem_ctrl.rank0.memoryStateTime::SREF            0                       # Time in different power states
system.mem_ctrl.rank0.memoryStateTime::PRE_PDN            0                       # Time in different power states
system.mem_ctrl.rank0.memoryStateTime::ACT   2506077250                       # Time in different power states
system.mem_ctrl.rank0.memoryStateTime::ACT_PDN            0                       # Time in different power states
system.mem_ctrl.power_state.pwrStateResidencyTicks::UNDEFINED   4216462000                       # Cumulative time (in ticks) in various power states
system.cache_medium.blocked_cycles::no_mshrs            0                       # number of cycles access was blocked
system.cache_medium.blocked_cycles::no_targets            0                       # number of cycles access was blocked
system.cache_medium.blocked::no_mshrs               0                       # number of cycles access was blocked
system.cache_medium.blocked::no_targets             0                       # number of cycles access was blocked
system.cache_medium.avg_blocked_cycles::no_mshrs          nan                       # average number of cycles each access was blocked
system.cache_medium.avg_blocked_cycles::no_targets          nan                       # average number of cycles each access was blocked
system.cache_medium.replacements                    0                       # number of replacements
system.cache_medium.power_state.pwrStateResidencyTicks::UNDEFINED   4216462000                       # Cumulative time (in ticks) in various power states
system.cache_medium.tags.tagsinuse                  0                       # Cycle average of tags in use
system.cache_medium.tags.total_refs                 0                       # Total number of references to valid blocks.
system.cache_medium.tags.sampled_refs               0                       # Sample count of references to valid blocks.
system.cache_medium.tags.avg_refs                 nan                       # Average number of references to valid blocks.
system.cache_medium.tags.warmup_cycle               0                       # Cycle when the warmup percentage was hit.
system.cache_medium.tags.tag_accesses               0                       # Number of tag accesses
system.cache_medium.tags.data_accesses              0                       # Number of data accesses
system.cache_medium.tags.power_state.pwrStateResidencyTicks::UNDEFINED   4216462000                       # Cumulative time (in ticks) in various power states
system.clk_domain.clock                          1000                       # Clock period in ticks
system.clk_domain.voltage_domain.voltage            1                       # Voltage in Volts
system.dcache.demand_hits::.cpu.data           334134                       # number of demand (read+write) hits
system.dcache.demand_hits::total               334134                       # number of demand (read+write) hits
system.dcache.overall_hits::.cpu.data          334134                       # number of overall hits
system.dcache.overall_hits::total              334134                       # number of overall hits
system.dcache.demand_misses::.cpu.data           7018                       # number of demand (read+write) misses
system.dcache.demand_misses::total               7018                       # number of demand (read+write) misses
system.dcache.overall_misses::.cpu.data          7018                       # number of overall misses
system.dcache.overall_misses::total              7018                       # number of overall misses
system.dcache.demand_miss_latency::.cpu.data    270161000                       # number of demand (read+write) miss cycles
system.dcache.demand_miss_latency::total    270161000                       # number of demand (read+write) miss cycles
system.dcache.overall_miss_latency::.cpu.data    270161000                       # number of overall miss cycles
system.dcache.overall_miss_latency::total    270161000                       # number of overall miss cycles
system.dcache.demand_accesses::.cpu.data       341152                       # number of demand (read+write) accesses
system.dcache.demand_accesses::total           341152                       # number of demand (read+write) accesses
system.dcache.overall_accesses::.cpu.data       341152                       # number of overall (read+write) accesses
system.dcache.overall_accesses::total          341152                       # number of overall (read+write) accesses
system.dcache.demand_miss_rate::.cpu.data     0.020571                       # miss rate for demand accesses
system.dcache.demand_miss_rate::total        0.020571                       # miss rate for demand accesses
system.dcache.overall_miss_rate::.cpu.data     0.020571                       # miss rate for overall accesses
system.dcache.overall_miss_rate::total       0.020571                       # miss rate for overall accesses
system.dcache.demand_avg_miss_latency::.cpu.data 38495.440296                       # average overall miss latency
system.dcache.demand_avg_miss_latency::total 38495.440296                       # average overall miss latency
system.dcache.overall_avg_miss_latency::.cpu.data 38495.440296                       # average overall miss latency
system.dcache.overall_avg_miss_latency::total 38495.440296                       # average overall miss latency
system.dcache.blocked_cycles::no_mshrs              0                       # number of cycles access was blocked
system.dcache.blocked_cycles::no_targets            0                       # number of cycles access was blocked
system.dcache.blocked::no_mshrs                     0                       # number of cycles access was blocked
system.dcache.blocked::no_targets                   0                       # number of cycles access was blocked
system.dcache.avg_blocked_cycles::no_mshrs          nan                       # average number of cycles each access was blocked
[...]
system.dcache.tags.age_task_id_blocks_1024::0           26                       # Occupied blocks per task id
system.dcache.tags.age_task_id_blocks_1024::1          155                       # Occupied blocks per task id
system.dcache.tags.age_task_id_blocks_1024::2           75                       # Occupied blocks per task id
system.dcache.tags.occ_task_id_percent::1024            1                       # Percentage of cache occupancy per task id
system.dcache.tags.tag_accesses               2091696                       # Number of tag accesses
system.dcache.tags.data_accesses              2091696                       # Number of data accesses
system.dcache.tags.power_state.pwrStateResidencyTicks::UNDEFINED  26241386000                       # Cumulative time (in ticks) in various power states
system.cache_large.blocked_cycles::no_mshrs            0                       # number of cycles access was blocked
system.cache_large.blocked_cycles::no_targets            0                       # number of cycles access was blocked
system.cache_large.blocked::no_mshrs                0                       # number of cycles access was blocked
system.cache_large.blocked::no_targets              0                       # number of cycles access was blocked
system.cache_large.avg_blocked_cycles::no_mshrs          nan                       # average number of cycles each access was blocked
system.cache_large.avg_blocked_cycles::no_targets          nan                       # average number of cycles each access was blocked
system.cache_large.replacements                     0                       # number of replacements
system.cache_large.power_state.pwrStateResidencyTicks::UNDEFINED  26241386000                       # Cumulative time (in ticks) in various power states
system.cache_large.tags.tagsinuse                   0                       # Cycle average of tags in use
system.cache_large.tags.total_refs                  0                       # Total number of references to valid blocks.
system.cache_large.tags.sampled_refs                0                       # Sample count of references to valid blocks.
system.cache_large.tags.avg_refs                  nan                       # Average number of references to valid blocks.
system.cache_large.tags.warmup_cycle                0                       # Cycle when the warmup percentage was hit.
system.cache_large.tags.tag_accesses                0                       # Number of tag accesses
system.cache_large.tags.data_accesses               0                       # Number of data accesses
system.cache_large.tags.power_state.pwrStateResidencyTicks::UNDEFINED  26241386000                       # Cumulative time (in ticks) in various power states
system.l2cache.demand_hits::.cpu.inst           11650                       # number of demand (read+write) hits
system.l2cache.demand_hits::.cpu.data           13185                       # number of demand (read+write) hits
system.l2cache.demand_hits::total               24835                       # number of demand (read+write) hits
system.l2cache.overall_hits::.cpu.inst          11650                       # number of overall hits
system.l2cache.overall_hits::.cpu.data          13185                       # number of overall hits
system.l2cache.overall_hits::total              24835                       # number of overall hits
system.l2cache.demand_misses::.cpu.inst         26306                       # number of demand (read+write) misses
system.l2cache.demand_misses::.cpu.data         43428                       # number of demand (read+write) misses
system.l2cache.demand_misses::total             69734                       # number of demand (read+write) misses
system.l2cache.overall_misses::.cpu.inst        26306                       # number of overall misses
system.l2cache.overall_misses::.cpu.data        43428                       # number of overall misses
system.l2cache.overall_misses::total            69734                       # number of overall misses
system.l2cache.demand_miss_latency::.cpu.inst    789878000                       # number of demand (read+write) miss cycles
system.l2cache.demand_miss_latency::.cpu.data   2771528000                       # number of demand (read+write) miss cycles
system.l2cache.demand_miss_latency::total   3561406000                       # number of demand (read+write) miss cycles
system.l2cache.overall_miss_latency::.cpu.inst    789878000                       # number of overall miss cycles
system.l2cache.overall_miss_latency::.cpu.data   2771528000                       # number of overall miss cycles
system.l2cache.overall_miss_latency::total   3561406000                       # number of overall miss cycles
system.l2cache.demand_accesses::.cpu.inst        37956                       # number of demand (read+write) accesses
system.l2cache.demand_accesses::.cpu.data        56613                       # number of demand (read+write) accesses
system.l2cache.demand_accesses::total           94569                       # number of demand (read+write) accesses
system.l2cache.overall_accesses::.cpu.inst        37956                       # number of overall (read+write) accesses
system.l2cache.overall_accesses::.cpu.data        56613                       # number of overall (read+write) accesses
system.l2cache.overall_accesses::total          94569                       # number of overall (read+write) accesses
system.l2cache.demand_miss_rate::.cpu.inst     0.693066                       # miss rate for demand accesses
system.l2cache.demand_miss_rate::.cpu.data     0.767103                       # miss rate for demand accesses
system.l2cache.demand_miss_rate::total       0.737388                       # miss rate for demand accesses
system.l2cache.overall_miss_rate::.cpu.inst     0.693066                       # miss rate for overall accesses
system.l2cache.overall_miss_rate::.cpu.data     0.767103                       # miss rate for overall accesses
system.l2cache.overall_miss_rate::total      0.737388                       # miss rate for overall accesses
system.l2cache.demand_avg_miss_latency::.cpu.inst 30026.533871                       # average overall miss latency
system.l2cache.demand_avg_miss_latency::.cpu.data 63818.918670                       # average overall miss latency
system.l2cache.demand_avg_miss_latency::total 51071.299510                       # average overall miss latency
system.l2cache.overall_avg_miss_latency::.cpu.inst 30026.533871                       # average overall miss latency
system.l2cache.overall_avg_miss_latency::.cpu.data 63818.918670                       # average overall miss latency
system.l2cache.overall_avg_miss_latency::total 51071.299510                       # average overall miss latency
system.l2cache.blocked_cycles::no_mshrs             0                       # number of cycles access was blocked
system.l2cache.blocked_cycles::no_targets            0                       # number of cycles access was blocked
system.l2cache.blocked::no_mshrs                    0                       # number of cycles access was blocked
system.l2cache.blocked::no_targets                  0                       # number of cycles access was blocked
system.l2cache.avg_blocked_cycles::no_mshrs          nan                       # average number of cycles each access was blocked
system.l2cache.avg_blocked_cycles::no_targets          nan                       # average number of cycles each access was blocked
system.l2cache.writebacks::.writebacks          11882                       # number of writebacks
system.l2cache.writebacks::total                11882                       # number of writebacks
system.l2cache.demand_mshr_misses::.cpu.inst        26306                       # number of demand (read+write) MSHR misses
system.l2cache.demand_mshr_misses::.cpu.data        43428                       # number of demand (read+write) MSHR misses
system.l2cache.demand_mshr_misses::total        69734                       # number of demand (read+write) MSHR misses
system.l2cache.overall_mshr_misses::.cpu.inst        26306                       # number of overall MSHR misses
system.l2cache.overall_mshr_misses::.cpu.data        43428                       # number of overall MSHR misses
system.l2cache.overall_mshr_misses::total        69734                       # number of overall MSHR misses
system.l2cache.demand_mshr_miss_latency::.cpu.inst    737266000                       # number of demand (read+write) MSHR miss cycles
system.l2cache.demand_mshr_miss_latency::.cpu.data   2684672000                       # number of demand (read+write) MSHR miss cycles
system.l2cache.demand_mshr_miss_latency::total   3421938000                       # number of demand (read+write) MSHR miss cycles
system.l2cache.overall_mshr_miss_latency::.cpu.inst    737266000                       # number of overall MSHR miss cycles
system.l2cache.overall_mshr_miss_latency::.cpu.data   2684672000                       # number of overall MSHR miss cycles
system.l2cache.overall_mshr_miss_latency::total   3421938000                       # number of overall MSHR miss cycles
system.l2cache.demand_mshr_miss_rate::.cpu.inst     0.693066                       # mshr miss rate for demand accesses
system.l2cache.demand_mshr_miss_rate::.cpu.data     0.767103                       # mshr miss rate for demand accesses
system.l2cache.demand_mshr_miss_rate::total     0.737388                       # mshr miss rate for demand accesses
system.l2cache.overall_mshr_miss_rate::.cpu.inst     0.693066                       # mshr miss rate for overall accesses
system.l2cache.overall_mshr_miss_rate::.cpu.data     0.767103                       # mshr miss rate for overall accesses
system.l2cache.overall_mshr_miss_rate::total     0.737388                       # mshr miss rate for overall accesses
system.l2cache.demand_avg_mshr_miss_latency::.cpu.inst 28026.533871                       # average overall mshr miss latency
system.l2cache.demand_avg_mshr_miss_latency::.cpu.data 61818.918670                       # average overall mshr miss latency
system.l2cache.demand_avg_mshr_miss_latency::total 49071.299510                       # average overall mshr miss latency
system.l2cache.overall_avg_mshr_miss_latency::.cpu.inst 28026.533871                       # average overall mshr miss latency
system.l2cache.overall_avg_mshr_miss_latency::.cpu.data 61818.918670                       # average overall mshr miss latency
system.l2cache.overall_avg_mshr_miss_latency::total 49071.299510                       # average overall mshr miss latency
system.l2cache.replacements                     77993                       # number of replacements
system.l2cache.ReadReq_hits::.cpu.inst          11650                       # number of ReadReq hits
system.l2cache.ReadReq_hits::.cpu.data          13185                       # number of ReadReq hits
system.l2cache.ReadReq_hits::total              24835                       # number of ReadReq hits
system.l2cache.ReadReq_misses::.cpu.inst        26306                       # number of ReadReq misses
system.l2cache.ReadReq_misses::.cpu.data        43428                       # number of ReadReq misses
system.l2cache.ReadReq_misses::total            69734                       # number of ReadReq misses
system.l2cache.ReadReq_miss_latency::.cpu.inst    789878000                       # number of ReadReq miss cycles
system.l2cache.ReadReq_miss_latency::.cpu.data   2771528000                       # number of ReadReq miss cycles
system.l2cache.ReadReq_miss_latency::total   3561406000                       # number of ReadReq miss cycles
system.l2cache.ReadReq_accesses::.cpu.inst        37956                       # number of ReadReq accesses(hits+misses)
system.l2cache.ReadReq_accesses::.cpu.data        56613                       # number of ReadReq accesses(hits+misses)
system.l2cache.ReadReq_accesses::total          94569                       # number of ReadReq accesses(hits+misses)
system.l2cache.ReadReq_miss_rate::.cpu.inst     0.693066                       # miss rate for ReadReq accesses
system.l2cache.ReadReq_miss_rate::.cpu.data     0.767103                       # miss rate for ReadReq accesses
system.l2cache.ReadReq_miss_rate::total      0.737388                       # miss rate for ReadReq accesses
system.l2cache.ReadReq_avg_miss_latency::.cpu.inst 30026.533871                       # average ReadReq miss latency
system.l2cache.ReadReq_avg_miss_latency::.cpu.data 63818.918670                       # average ReadReq miss latency
system.l2cache.ReadReq_avg_miss_latency::total 51071.299510                       # average ReadReq miss latency
system.l2cache.ReadReq_mshr_misses::.cpu.inst        26306                       # number of ReadReq MSHR misses
system.l2cache.ReadReq_mshr_misses::.cpu.data        43428                       # number of ReadReq MSHR misses
system.l2cache.ReadReq_mshr_misses::total        69734                       # number of ReadReq MSHR misses
system.l2cache.ReadReq_mshr_miss_latency::.cpu.inst    737266000                       # number of ReadReq MSHR miss cycles
system.l2cache.ReadReq_mshr_miss_latency::.cpu.data   2684672000                       # number of ReadReq MSHR miss cycles
system.l2cache.ReadReq_mshr_miss_latency::total   3421938000                       # number of ReadReq MSHR miss cycles
system.l2cache.ReadReq_mshr_miss_rate::.cpu.inst     0.693066                       # mshr miss rate for ReadReq accesses
system.l2cache.ReadReq_mshr_miss_rate::.cpu.data     0.767103                       # mshr miss rate for ReadReq accesses
system.l2cache.ReadReq_mshr_miss_rate::total     0.737388                       # mshr miss rate for ReadReq accesses
system.l2cache.ReadReq_avg_mshr_miss_latency::.cpu.inst 28026.533871                       # average ReadReq mshr miss latency
system.l2cache.ReadReq_avg_mshr_miss_latency::.cpu.data 61818.918670                       # average ReadReq mshr miss latency
system.l2cache.ReadReq_avg_mshr_miss_latency::total 49071.299510                       # average ReadReq mshr miss latency
system.l2cache.WritebackDirty_hits::.writebacks        15155                       # number of WritebackDirty hits
system.l2cache.WritebackDirty_hits::total        15155                       # number of WritebackDirty hits
system.l2cache.WritebackDirty_accesses::.writebacks        15155                       # number of WritebackDirty accesses(hits+misses)
system.l2cache.WritebackDirty_accesses::total        15155                       # number of WritebackDirty accesses(hits+misses)
system.l2cache.power_state.pwrStateResidencyTicks::UNDEFINED  26241386000                       # Cumulative time (in ticks) in various power states
system.l2cache.tags.tagsinuse              510.477757                       # Cycle average of tags in use
system.l2cache.tags.total_refs                 109724                       # Total number of references to valid blocks.
system.l2cache.tags.sampled_refs                78505                       # Sample count of references to valid blocks.
system.l2cache.tags.avg_refs                 1.397669                       # Average number of references to valid blocks.
system.l2cache.tags.warmup_cycle                78000                       # Cycle when the warmup percentage was hit.
system.l2cache.tags.occ_blocks::.writebacks    70.255509                       # Average occupied blocks per requestor
system.l2cache.tags.occ_blocks::.cpu.inst    49.867053                       # Average occupied blocks per requestor
system.l2cache.tags.occ_blocks::.cpu.data   390.355196                       # Average occupied blocks per requestor
system.l2cache.tags.occ_percent::.writebacks     0.137218                       # Average percentage of cache occupancy
system.l2cache.tags.occ_percent::.cpu.inst     0.097397                       # Average percentage of cache occupancy
system.l2cache.tags.occ_percent::.cpu.data     0.762412                       # Average percentage of cache occupancy
system.l2cache.tags.occ_percent::total       0.997027                       # Average percentage of cache occupancy
system.l2cache.tags.occ_task_id_blocks::1024          512                       # Occupied blocks per task id
system.l2cache.tags.age_task_id_blocks_1024::0           26                       # Occupied blocks per task id
system.l2cache.tags.age_task_id_blocks_1024::1          203                       # Occupied blocks per task id
system.l2cache.tags.age_task_id_blocks_1024::2          283                       # Occupied blocks per task id
system.l2cache.tags.occ_task_id_percent::1024            1                       # Percentage of cache occupancy per task id
system.l2cache.tags.tag_accesses               188229                       # Number of tag accesses
system.l2cache.tags.data_accesses              188229                       # Number of data accesses
system.l2cache.tags.power_state.pwrStateResidencyTicks::UNDEFINED  26241386000                       # Cumulative time (in ticks) in various power states
system.l2bar.trans_dist::ReadReq                94569                       # Transaction distribution
system.l2bar.trans_dist::ReadResp               94569                       # Transaction distribution
system.l2bar.trans_dist::WritebackDirty         15155                       # Transaction distribution
system.l2bar.pkt_count_system.dcache.mem_side::system.l2cache.cpu_side       128381                       # Packet count per connected master and slave (bytes)
system.l2bar.pkt_count_system.icache.mem_side::system.l2cache.cpu_side        75912                       # Packet count per connected master and slave (bytes)
system.l2bar.pkt_count::total                  204293                       # Packet count per connected master and slave (bytes)
system.l2bar.pkt_size_system.dcache.mem_side::system.l2cache.cpu_side      4593152                       # Cumulative packet size per connected master and slave (bytes)
system.l2bar.pkt_size_system.icache.mem_side::system.l2cache.cpu_side      2429184                       # Cumulative packet size per connected master and slave (bytes)
system.l2bar.pkt_size::total                  7022336                       # Cumulative packet size per connected master and slave (bytes)
system.l2bar.respLayer1.occupancy           189780000                       # Layer occupancy (ticks)
system.l2bar.respLayer1.utilization               0.7                       # Layer utilization (%)
system.l2bar.reqLayer0.occupancy            170344000                       # Layer occupancy (ticks)
system.l2bar.reqLayer0.utilization                0.6                       # Layer utilization (%)
system.l2bar.respLayer0.occupancy           283065000                       # Layer occupancy (ticks)
system.l2bar.respLayer0.utilization               1.1                       # Layer utilization (%)
system.l2bar.power_state.pwrStateResidencyTicks::UNDEFINED  26241386000                       # Cumulative time (in ticks) in various power states
system.cpu.dtb.walker.power_state.pwrStateResidencyTicks::UNDEFINED  26241386000                       # Cumulative time (in ticks) in various power states
system.cpu.interrupts.clk_domain.clock          16000                       # Clock period in ticks
system.cpu.itb.walker.power_state.pwrStateResidencyTicks::UNDEFINED  26241386000                       # Cumulative time (in ticks) in various power states
system.cpu.power_state.numTransitions               1                       # Number of power state transitions
system.cpu.power_state.pwrStateResidencyTicks::ON  26241386000                       # Cumulative time (in ticks) in various power states

---------- End Simulation Statistics   ----------
