
---------- Begin Simulation Statistics ----------
final_tick                                 4649874000                       # Number of ticks from beginning of simulation (restored from checkpoints and never reset)
host_inst_rate                                 243867                       # Simulator instruction rate (inst/s)
host_mem_usage                                1343764                       # Number of bytes of host memory used
host_op_rate                                   502455                       # Simulator op (including micro ops) rate (op/s)
host_seconds                                     4.10                       # Real time elapsed on the host
host_tick_rate                             1133633947                       # Simulator tick rate (ticks/s)
sim_freq                                 1000000000000                       # Frequency of simulated ticks
sim_insts                                     1000201                       # Number of instructions simulated
sim_ops                                       2060908                       # Number of ops (including micro ops) simulated
sim_seconds                                  0.004650                       # Number of seconds simulated
sim_ticks                                  4649874000                       # Number of ticks simulated
system.cpu.Branches                            239610                       # Number of branches fetched
system.cpu.committedInsts                     1000201                       # Number of instructions committed
system.cpu.committedOps                       2060908                       # Number of ops (including micro ops) committed
system.cpu.dtb.rdAccesses                      201651                       # TLB accesses on read requests
system.cpu.dtb.rdMisses                            74                       # TLB misses on read requests
system.cpu.dtb.wrAccesses                      139464                       # TLB accesses on write requests
system.cpu.dtb.wrMisses                            62                       # TLB misses on write requests
system.cpu.idle_fraction                            0                       # Percentage of idle cycles
system.cpu.itb.rdAccesses                           0                       # TLB accesses on read requests
system.cpu.itb.rdMisses                             0                       # TLB misses on read requests
system.cpu.itb.wrAccesses                     1319845                       # TLB accesses on write requests
system.cpu.itb.wrMisses                           164                       # TLB misses on write requests
system.cpu.not_idle_fraction                        1                       # Percentage of non-idle cycles
system.cpu.numCycles                          4649863                       # number of cpu cycles simulated
system.cpu.numWorkItemsCompleted                    0                       # number of work items this cpu completed
system.cpu.numWorkItemsStarted                      0                       # number of work items this cpu started
system.cpu.num_busy_cycles                    4649863                       # Number of busy cycles
system.cpu.num_cc_register_reads              1493498                       # number of times the CC registers were read
system.cpu.num_cc_register_writes              634819                       # number of times the CC registers were written
system.cpu.num_conditional_control_insts       176827                       # number of instructions that are conditional controls
system.cpu.num_fp_alu_accesses                  81407                       # Number of float alu accesses
system.cpu.num_fp_insts                         81407                       # number of float instructions
system.cpu.num_fp_register_reads               136568                       # number of times the floating registers were read
system.cpu.num_fp_register_writes               69051                       # number of times the floating registers were written
system.cpu.num_func_calls                       43021                       # number of times a function call or return occured
system.cpu.num_idle_cycles                          0                       # Number of idle cycles
system.cpu.num_int_alu_accesses               1990455                       # Number of integer alu accesses
system.cpu.num_int_insts                      1990455                       # number of integer instructions
system.cpu.num_int_register_reads             3845604                       # number of times the integer registers were read
system.cpu.num_int_register_writes            1603940                       # number of times the integer registers were written
system.cpu.num_load_insts                      201373                       # Number of load instructions
system.cpu.num_mem_refs                        340746                       # number of memory refs
system.cpu.num_store_insts                     139373                       # Number of store instructions
system.cpu.num_vec_alu_accesses                     0                       # Number of vector alu accesses
system.cpu.num_vec_insts                            0                       # number of vector instructions
system.cpu.num_vec_register_reads                   0                       # number of times the vector registers were read
system.cpu.num_vec_register_writes                  0                       # number of times the vector registers were written
system.cpu.op_class::No_OpClass                 14342      0.70%      0.70% # Class of executed instruction
system.cpu.op_class::IntAlu                   1643775     79.76%     80.45% # Class of executed instruction
system.cpu.op_class::IntMult                       20      0.00%     80.46% # Class of executed instruction
system.cpu.op_class::IntDiv                        42      0.00%     80.46% # Class of executed instruction
system.cpu.op_class::FloatAdd                    2029      0.10%     80.56% # Class of executed instruction
system.cpu.op_class::FloatCmp                       0      0.00%     80.56% # Class of executed instruction
system.cpu.op_class::FloatCvt                       0      0.00%     80.56% # Class of executed instruction
system.cpu.op_class::FloatMult                      0      0.00%     80.56% # Class of executed instruction
system.cpu.op_class::FloatMultAcc                   0      0.00%     80.56% # Class of executed instruction
system.cpu.op_class::FloatDiv                       0      0.00%     80.56% # Class of executed instruction
system.cpu.op_class::FloatMisc                      0      0.00%     80.56% # Class of executed instruction
system.cpu.op_class::FloatSqrt                      0      0.00%     80.56% # Class of executed instruction
system.cpu.op_class::SimdAdd                       20      0.00%     80.56% # Class of executed instruction
system.cpu.op_class::SimdAddAcc                     0      0.00%     80.56% # Class of executed instruction
system.cpu.op_class::SimdAlu                    20512      1.00%     81.55% # Class of executed instruction
system.cpu.op_class::SimdCmp                      454      0.02%     81.57% # Class of executed instruction
system.cpu.op_class::SimdCvt                    14402      0.70%     82.27% # Class of executed instruction
system.cpu.op_class::SimdMisc                   24566      1.19%     83.47% # Class of executed instruction
system.cpu.op_class::SimdMult                       0      0.00%     83.47% # Class of executed instruction
system.cpu.op_class::SimdMultAcc                    0      0.00%     83.47% # Class of executed instruction
system.cpu.op_class::SimdShift                      0      0.00%     83.47% # Class of executed instruction
system.cpu.op_class::SimdShiftAcc                   0      0.00%     83.47% # Class of executed instruction
system.cpu.op_class::SimdDiv                        0      0.00%     83.47% # Class of executed instruction
system.cpu.op_class::SimdSqrt                       0      0.00%     83.47% # Class of executed instruction
system.cpu.op_class::SimdFloatAdd                   0      0.00%     83.47% # Class of executed instruction
system.cpu.op_class::SimdFloatAlu                   0      0.00%     83.47% # Class of executed instruction
system.cpu.op_class::SimdFloatCmp                   0      0.00%     83.47% # Class of executed instruction
system.cpu.op_class::SimdFloatCvt                   0      0.00%     83.47% # Class of executed instruction
system.cpu.op_class::SimdFloatDiv                  25      0.00%     83.47% # Class of executed instruction
system.cpu.op_class::SimdFloatMisc                  0      0.00%     83.47% # Class of executed instruction
system.cpu.op_class::SimdFloatMult                  0      0.00%     83.47% # Class of executed instruction
system.cpu.op_class::SimdFloatMultAcc               0      0.00%     83.47% # Class of executed instruction
system.cpu.op_class::SimdFloatSqrt                  0      0.00%     83.47% # Class of executed instruction
system.cpu.op_class::SimdReduceAdd                  0      0.00%     83.47% # Class of executed instruction
system.cpu.op_class::SimdReduceAlu                  0      0.00%     83.47% # Class of executed instruction
system.cpu.op_class::SimdReduceCmp                  0      0.00%     83.47% # Class of executed instruction
system.cpu.op_class::SimdFloatReduceAdd             0      0.00%     83.47% # Class of executed instruction
system.cpu.op_class::SimdFloatReduceCmp             0      0.00%     83.47% # Class of executed instruction
system.cpu.op_class::SimdAes                        0      0.00%     83.47% # Class of executed instruction
system.cpu.op_class::SimdAesMix                     0      0.00%     83.47% # Class of executed instruction
system.cpu.op_class::SimdSha1Hash                   0      0.00%     83.47% # Class of executed instruction
system.cpu.op_class::SimdSha1Hash2                  0      0.00%     83.47% # Class of executed instruction
system.cpu.op_class::SimdSha256Hash                 0      0.00%     83.47% # Class of executed instruction
system.cpu.op_class::SimdSha256Hash2                0      0.00%     83.47% # Class of executed instruction
system.cpu.op_class::SimdShaSigma2                  0      0.00%     83.47% # Class of executed instruction
system.cpu.op_class::SimdShaSigma3                  0      0.00%     83.47% # Class of executed instruction
system.cpu.op_class::SimdPredAlu                    0      0.00%     83.47% # Class of executed instruction
system.cpu.op_class::MemRead                   190021      9.22%     92.69% # Class of executed instruction
system.cpu.op_class::MemWrite                  137380      6.67%     99.35% # Class of executed instruction
system.cpu.op_class::FloatMemRead               11352      0.55%     99.90% # Class of executed instruction
system.cpu.op_class::FloatMemWrite               1993      0.10%    100.00% # Class of executed instruction
system.cpu.op_class::IprAccess                      0      0.00%    100.00% # Class of executed instruction
system.cpu.op_class::InstPrefetch                   0      0.00%    100.00% # Class of executed instruction
system.cpu.op_class::total                    2060933                       # Class of executed instruction
system.cpu.workload.numSyscalls                    13                       # Number of system calls
system.dynamic_cache.flushTicks                     0                       # Ticks taken to flush
system.dynamic_cache.numFlushes                     0                       # Number of Flushes Taken
system.cache_small.blocked_cycles::no_mshrs            0                       # number of cycles access was blocked
system.cache_small.blocked_cycles::no_targets            0                       # number of cycles access was blocked
system.cache_small.blocked::no_mshrs                0                       # number of cycles access was blocked
system.cache_small.blocked::no_targets              0                       # number of cycles access was blocked
system.cache_small.avg_blocked_cycles::no_mshrs          nan                       # average number of cycles each access was blocked
system.cache_small.avg_blocked_cycles::no_targets          nan                       # average number of cycles each access was blocked
system.cache_small.replacements                     0                       # number of replacements
system.cache_small.power_state.pwrStateResidencyTicks::UNDEFINED   4649874000                       # Cumulative time (in ticks) in various power states
system.cache_small.tags.tagsinuse                   0                       # Cycle average of tags in use
system.cache_small.tags.total_refs                  0                       # Total number of references to valid blocks.
system.cache_small.tags.sampled_refs                0                       # Sample count of references to valid blocks.
system.cache_small.tags.avg_refs                  nan                       # Average number of references to valid blocks.
system.cache_small.tags.warmup_cycle                0                       # Cycle when the warmup percentage was hit.
system.cache_small.tags.tag_accesses                0                       # Number of tag accesses
system.cache_small.tags.data_accesses               0                       # Number of data accesses
system.cache_small.tags.power_state.pwrStateResidencyTicks::UNDEFINED   4649874000                       # Cumulative time (in ticks) in various power states
system.icache.demand_hits::.cpu.inst          1303766                       # number of demand (read+write) hits
system.icache.demand_hits::total              1303766                       # number of demand (read+write) hits
system.icache.overall_hits::.cpu.inst         1303766                       # number of overall hits
system.icache.overall_hits::total             1303766                       # number of overall hits
system.icache.demand_misses::.cpu.inst          16079                       # number of demand (read+write) misses
system.icache.demand_misses::total              16079                       # number of demand (read+write) misses
system.icache.overall_misses::.cpu.inst         16079                       # number of overall misses
system.icache.overall_misses::total             16079                       # number of overall misses
system.icache.demand_miss_latency::.cpu.inst   1013943000                       # number of demand (read+write) miss cycles
system.icache.demand_miss_latency::total   1013943000                       # number of demand (read+write) miss cycles
system.icache.overall_miss_latency::.cpu.inst   1013943000                       # number of overall miss cycles
system.icache.overall_miss_latency::total   1013943000                       # number of overall miss cycles
system.icache.demand_accesses::.cpu.inst      1319845                       # number of demand (read+write) accesses
system.icache.demand_accesses::total          1319845                       # number of demand (read+write) accesses
system.icache.overall_accesses::.cpu.inst      1319845                       # number of overall (read+write) accesses
system.icache.overall_accesses::total         1319845                       # number of overall (read+write) accesses
system.icache.demand_miss_rate::.cpu.inst     0.012182                       # miss rate for demand accesses
system.icache.demand_miss_rate::total        0.012182                       # miss rate for demand accesses
system.icache.overall_miss_rate::.cpu.inst     0.012182                       # miss rate for overall accesses
system.icache.overall_miss_rate::total       0.012182                       # miss rate for overall accesses
system.icache.demand_avg_miss_latency::.cpu.inst 63060.078363                       # average overall miss latency
system.icache.demand_avg_miss_latency::total 63060.078363                       # average overall miss latency
system.icache.overall_avg_miss_latency::.cpu.inst 63060.078363                       # average overall miss latency
system.icache.overall_avg_miss_latency::total 63060.078363                       # average overall miss latency
system.icache.blocked_cycles::no_mshrs              0                       # number of cycles access was blocked
system.icache.blocked_cycles::no_targets            0                       # number of cycles access was blocked
system.icache.blocked::no_mshrs                     0                       # number of cycles access was blocked
system.icache.blocked::no_targets                   0                       # number of cycles access was blocked
system.icache.avg_blocked_cycles::no_mshrs          nan                       # average number of cycles each access was blocked
system.icache.avg_blocked_cycles::no_targets          nan                       # average number of cycles each access was blocked
system.icache.demand_mshr_misses::.cpu.inst        16079                       # number of demand (read+write) MSHR misses
system.icache.demand_mshr_misses::total         16079                       # number of demand (read+write) MSHR misses
system.icache.overall_mshr_misses::.cpu.inst        16079                       # number of overall MSHR misses
system.icache.overall_mshr_misses::total        16079                       # number of overall MSHR misses
system.icache.demand_mshr_miss_latency::.cpu.inst    981787000                       # number of demand (read+write) MSHR miss cycles
system.icache.demand_mshr_miss_latency::total    981787000                       # number of demand (read+write) MSHR miss cycles
system.icache.overall_mshr_miss_latency::.cpu.inst    981787000                       # number of overall MSHR miss cycles
system.icache.overall_mshr_miss_latency::total    981787000                       # number of overall MSHR miss cycles
system.icache.demand_mshr_miss_rate::.cpu.inst     0.012182                       # mshr miss rate for demand accesses
system.icache.demand_mshr_miss_rate::total     0.012182                       # mshr miss rate for demand accesses
system.icache.overall_mshr_miss_rate::.cpu.inst     0.012182                       # mshr miss rate for overall accesses
system.icache.overall_mshr_miss_rate::total     0.012182                       # mshr miss rate for overall accesses
system.icache.demand_avg_mshr_miss_latency::.cpu.inst 61060.202749                       # average overall mshr miss latency
system.icache.demand_avg_mshr_miss_latency::total 61060.202749                       # average overall mshr miss latency
system.icache.overall_avg_mshr_miss_latency::.cpu.inst 61060.202749                       # average overall mshr miss latency
system.icache.overall_avg_mshr_miss_latency::total 61060.202749                       # average overall mshr miss latency
system.icache.replacements                      15822                       # number of replacements
system.icache.ReadReq_hits::.cpu.inst         1303766                       # number of ReadReq hits
system.icache.ReadReq_hits::total             1303766                       # number of ReadReq hits
system.icache.ReadReq_misses::.cpu.inst         16079                       # number of ReadReq misses
system.icache.ReadReq_misses::total             16079                       # number of ReadReq misses
system.icache.ReadReq_miss_latency::.cpu.inst   1013943000                       # number of ReadReq miss cycles
system.icache.ReadReq_miss_latency::total   1013943000                       # number of ReadReq miss cycles
system.icache.ReadReq_accesses::.cpu.inst      1319845                       # number of ReadReq accesses(hits+misses)
system.icache.ReadReq_accesses::total         1319845                       # number of ReadReq accesses(hits+misses)
system.icache.ReadReq_miss_rate::.cpu.inst     0.012182                       # miss rate for ReadReq accesses
system.icache.ReadReq_miss_rate::total       0.012182                       # miss rate for ReadReq accesses
system.icache.ReadReq_avg_miss_latency::.cpu.inst 63060.078363                       # average ReadReq miss latency
system.icache.ReadReq_avg_miss_latency::total 63060.078363                       # average ReadReq miss latency
system.icache.ReadReq_mshr_misses::.cpu.inst        16079                       # number of ReadReq MSHR misses
system.icache.ReadReq_mshr_misses::total        16079                       # number of ReadReq MSHR misses
system.icache.ReadReq_mshr_miss_latency::.cpu.inst    981787000                       # number of ReadReq MSHR miss cycles
system.icache.ReadReq_mshr_miss_latency::total    981787000                       # number of ReadReq MSHR miss cycles
system.icache.ReadReq_mshr_miss_rate::.cpu.inst     0.012182                       # mshr miss rate for ReadReq accesses
system.icache.ReadReq_mshr_miss_rate::total     0.012182                       # mshr miss rate for ReadReq accesses
system.icache.ReadReq_avg_mshr_miss_latency::.cpu.inst 61060.202749                       # average ReadReq mshr miss latency
system.icache.ReadReq_avg_mshr_miss_latency::total 61060.202749                       # average ReadReq mshr miss latency
system.icache.power_state.pwrStateResidencyTicks::UNDEFINED   4649874000                       # Cumulative time (in ticks) in various power states
system.icache.tags.tagsinuse               252.076842                       # Cycle average of tags in use
system.icache.tags.total_refs                 1117186                       # Total number of references to valid blocks.
system.icache.tags.sampled_refs                 15822                       # Sample count of references to valid blocks.
system.icache.tags.avg_refs                 70.609657                       # Average number of references to valid blocks.
system.icache.tags.warmup_cycle                 80000                       # Cycle when the warmup percentage was hit.
system.icache.tags.occ_blocks::.cpu.inst   252.076842                       # Average occupied blocks per requestor
system.icache.tags.occ_percent::.cpu.inst     0.984675                       # Average percentage of cache occupancy
system.icache.tags.occ_percent::total        0.984675                       # Average percentage of cache occupancy
system.icache.tags.occ_task_id_blocks::1024          256                       # Occupied blocks per task id
system.icache.tags.age_task_id_blocks_1024::0           38                       # Occupied blocks per task id
system.icache.tags.age_task_id_blocks_1024::1           33                       # Occupied blocks per task id
system.icache.tags.age_task_id_blocks_1024::2           40                       # Occupied blocks per task id
system.icache.tags.age_task_id_blocks_1024::3          145                       # Occupied blocks per task id
system.icache.tags.occ_task_id_percent::1024            1                       # Percentage of cache occupancy per task id
system.icache.tags.tag_accesses               1335923                       # Number of tag accesses
system.icache.tags.data_accesses              1335923                       # Number of data accesses
system.icache.tags.power_state.pwrStateResidencyTicks::UNDEFINED   4649874000                       # Cumulative time (in ticks) in various power states
system.membus.trans_dist::ReadReq               16447                       # Transaction distribution
system.membus.trans_dist::ReadResp              16447                       # Transaction distribution
system.membus.trans_dist::WritebackDirty         2948                       # Transaction distribution
system.membus.pkt_count_system.dynamic_cache.mem_side::system.mem_ctrl.port        35842                       # Packet count per connected master and slave (bytes)
system.membus.pkt_count_system.dynamic_cache.mem_side::total        35842                       # Packet count per connected master and slave (bytes)
system.membus.pkt_count::total                  35842                       # Packet count per connected master and slave (bytes)
system.membus.pkt_size_system.dynamic_cache.mem_side::system.mem_ctrl.port      1241280                       # Cumulative packet size per connected master and slave (bytes)
system.membus.pkt_size_system.dynamic_cache.mem_side::total      1241280                       # Cumulative packet size per connected master and slave (bytes)
system.membus.pkt_size::total                 1241280                       # Cumulative packet size per connected master and slave (bytes)
system.membus.reqLayer2.occupancy            31187000                       # Layer occupancy (ticks)
system.membus.reqLayer2.utilization               0.7                       # Layer utilization (%)
system.membus.respLayer0.occupancy           88428500                       # Layer occupancy (ticks)
system.membus.respLayer0.utilization              1.9                       # Layer utilization (%)
system.membus.power_state.pwrStateResidencyTicks::UNDEFINED   4649874000                       # Cumulative time (in ticks) in various power states
system.mem_ctrl.bytes_read::.cpu.inst          797888                       # Number of bytes read from this memory
system.mem_ctrl.bytes_read::.cpu.data          254720                       # Number of bytes read from this memory
system.mem_ctrl.bytes_read::total             1052608                       # Number of bytes read from this memory
system.mem_ctrl.bytes_inst_read::.cpu.inst       797888                       # Number of instructions bytes read from this memory
system.mem_ctrl.bytes_inst_read::total         797888                       # Number of instructions bytes read from this memory
system.mem_ctrl.bytes_written::.writebacks       188672                       # Number of bytes written to this memory
system.mem_ctrl.bytes_written::total           188672                       # Number of bytes written to this memory
system.mem_ctrl.num_reads::.cpu.inst            12467                       # Number of read requests responded to by this memory
system.mem_ctrl.num_reads::.cpu.data             3980                       # Number of read requests responded to by this memory
system.mem_ctrl.num_reads::total                16447                       # Number of read requests responded to by this memory
system.mem_ctrl.num_writes::.writebacks          2948                       # Number of write requests responded to by this memory
system.mem_ctrl.num_writes::total                2948                       # Number of write requests responded to by this memory
system.mem_ctrl.bw_read::.cpu.inst          171593467                       # Total read bandwidth from this memory (bytes/s)
system.mem_ctrl.bw_read::.cpu.data           54779979                       # Total read bandwidth from this memory (bytes/s)
system.mem_ctrl.bw_read::total              226373446                       # Total read bandwidth from this memory (bytes/s)
system.mem_ctrl.bw_inst_read::.cpu.inst     171593467                       # Instruction read bandwidth from this memory (bytes/s)
system.mem_ctrl.bw_inst_read::total         171593467                       # Instruction read bandwidth from this memory (bytes/s)
system.mem_ctrl.bw_write::.writebacks        40575723                       # Write bandwidth from this memory (bytes/s)
system.mem_ctrl.bw_write::total              40575723                       # Write bandwidth from this memory (bytes/s)
system.mem_ctrl.bw_total::.writebacks        40575723                       # Total bandwidth to/from this memory (bytes/s)
system.mem_ctrl.bw_total::.cpu.inst         171593467                       # Total bandwidth to/from this memory (bytes/s)
system.mem_ctrl.bw_total::.cpu.data          54779979                       # Total bandwidth to/from this memory (bytes/s)
system.mem_ctrl.bw_total::total             266949169                       # Total bandwidth to/from this memory (bytes/s)
system.mem_ctrl.avgPriority_.writebacks::samples      1970.00                       # Average QoS priority value for accepted requests
system.mem_ctrl.avgPriority_.cpu.inst::samples     12467.00                       # Average QoS priority value for accepted requests
system.mem_ctrl.avgPriority_.cpu.data::samples      3317.00                       # Average QoS priority value for accepted requests
system.mem_ctrl.priorityMinLatency       0.000000018750                       # per QoS priority minimum request to response latency (s)
system.mem_ctrl.priorityMaxLatency       0.000933570500                       # per QoS priority maximum request to response latency (s)
system.mem_ctrl.numReadWriteTurnArounds           113                       # Number of turnarounds from READ to WRITE
system.mem_ctrl.numWriteReadTurnArounds           113                       # Number of turnarounds from WRITE to READ
system.mem_ctrl.numStayReadState                35657                       # Number of times bus staying in READ state
system.mem_ctrl.numStayWriteState                1841                       # Number of times bus staying in WRITE state
system.mem_ctrl.readReqs                        16447                       # Number of read requests accepted
system.mem_ctrl.writeReqs                        2948                       # Number of write requests accepted
system.mem_ctrl.readBursts                      16447                       # Number of DRAM read bursts, including those serviced by the write queue
system.mem_ctrl.writeBursts                      2948                       # Number of DRAM write bursts, including those merged in the write queue
system.mem_ctrl.servicedByWrQ                     663                       # Number of DRAM read bursts serviced by the write queue
system.mem_ctrl.mergedWrBursts                    978                       # Number of DRAM write bursts merged with an existing one
system.mem_ctrl.neitherReadNorWriteReqs             0                       # Number of requests that are neither read nor write
system.mem_ctrl.perBankRdBursts::0                511                       # Per bank write bursts
system.mem_ctrl.perBankRdBursts::1                705                       # Per bank write bursts
system.mem_ctrl.perBankRdBursts::2                340                       # Per bank write bursts
system.mem_ctrl.perBankRdBursts::3                844                       # Per bank write bursts
system.mem_ctrl.perBankRdBursts::4                346                       # Per bank write bursts
system.mem_ctrl.perBankRdBursts::5                417                       # Per bank write bursts
system.mem_ctrl.perBankRdBursts::6                309                       # Per bank write bursts
system.mem_ctrl.perBankRdBursts::7               2623                       # Per bank write bursts
system.mem_ctrl.perBankRdBursts::8                554                       # Per bank write bursts
system.mem_ctrl.perBankRdBursts::9                746                       # Per bank write bursts
system.mem_ctrl.perBankRdBursts::10               535                       # Per bank write bursts
system.mem_ctrl.perBankRdBursts::11              3259                       # Per bank write bursts
system.mem_ctrl.perBankRdBursts::12               511                       # Per bank write bursts
system.mem_ctrl.perBankRdBursts::13               723                       # Per bank write bursts
system.mem_ctrl.perBankRdBursts::14               621                       # Per bank write bursts
system.mem_ctrl.perBankRdBursts::15              2740                       # Per bank write bursts
system.mem_ctrl.perBankWrBursts::0                116                       # Per bank write bursts
system.mem_ctrl.perBankWrBursts::1                 62                       # Per bank write bursts
system.mem_ctrl.perBankWrBursts::2                185                       # Per bank write bursts
system.mem_ctrl.perBankWrBursts::3                  5                       # Per bank write bursts
system.mem_ctrl.perBankWrBursts::4                 71                       # Per bank write bursts
system.mem_ctrl.perBankWrBursts::5                104                       # Per bank write bursts
system.mem_ctrl.perBankWrBursts::6                 84                       # Per bank write bursts
system.mem_ctrl.perBankWrBursts::7                 61                       # Per bank write bursts
system.mem_ctrl.perBankWrBursts::8                129                       # Per bank write bursts
system.mem_ctrl.perBankWrBursts::9                252                       # Per bank write bursts
system.mem_ctrl.perBankWrBursts::10               160                       # Per bank write bursts
system.mem_ctrl.perBankWrBursts::11               134                       # Per bank write bursts
system.mem_ctrl.perBankWrBursts::12               125                       # Per bank write bursts
system.mem_ctrl.perBankWrBursts::13               134                       # Per bank write bursts
system.mem_ctrl.perBankWrBursts::14               191                       # Per bank write bursts
system.mem_ctrl.perBankWrBursts::15               141                       # Per bank write bursts
system.mem_ctrl.avgRdQLen                        1.00                       # Average read queue length when enqueuing
system.mem_ctrl.avgWrQLen                       24.52                       # Average write queue length when enqueuing
system.mem_ctrl.totQLat                     189020250                       # Total ticks spent queuing
system.mem_ctrl.totBusLat                    78920000                       # Total ticks spent in databus transfers
system.mem_ctrl.totMemAccLat                484970250                       # Total ticks spent from burst creation until serviced by the DRAM
system.mem_ctrl.avgQLat                      11975.43                       # Average queueing delay per DRAM burst
system.mem_ctrl.avgBusLat                     5000.00                       # Average bus latency per DRAM burst
system.mem_ctrl.avgMemAccLat                 30725.43                       # Average memory access latency per DRAM burst
system.mem_ctrl.numRdRetry                          0                       # Number of times read queue was full causing retry
system.mem_ctrl.numWrRetry                          0                       # Number of times write queue was full causing retry
system.mem_ctrl.readRowHits                      9294                       # Number of row buffer hits during reads
system.mem_ctrl.writeRowHits                     1593                       # Number of row buffer hits during writes
system.mem_ctrl.readRowHitRate                  58.88                       # Row buffer hit rate for reads
system.mem_ctrl.writeRowHitRate                 80.86                       # Row buffer hit rate for writes
system.mem_ctrl.readPktSize::0                      0                       # Read request sizes (log2)
system.mem_ctrl.readPktSize::1                      0                       # Read request sizes (log2)
system.mem_ctrl.readPktSize::2                      0                       # Read request sizes (log2)
system.mem_ctrl.readPktSize::3                      0                       # Read request sizes (log2)
system.mem_ctrl.readPktSize::4                      0                       # Read request sizes (log2)
system.mem_ctrl.readPktSize::5                      0                       # Read request sizes (log2)
system.mem_ctrl.readPktSize::6                  16447                       # Read request sizes (log2)
system.mem_ctrl.writePktSize::0                     0                       # Write request sizes (log2)
system.mem_ctrl.writePktSize::1                     0                       # Write request sizes (log2)
system.mem_ctrl.writePktSize::2                     0                       # Write request sizes (log2)
system.mem_ctrl.writePktSize::3                     0                       # Write request sizes (log2)
system.mem_ctrl.writePktSize::4                     0                       # Write request sizes (log2)
system.mem_ctrl.writePktSize::5                     0                       # Write request sizes (log2)
system.mem_ctrl.writePktSize::6                  2948                       # Write request sizes (log2)
system.mem_ctrl.rdQLenPdf::0                    15782                       # What read queue length does an incoming req see
system.mem_ctrl.rdQLenPdf::1                        2                       # What read queue length does an incoming req see
system.mem_ctrl.rdQLenPdf::2                        0                       # What read queue length does an incoming req see
system.mem_ctrl.rdQLenPdf::3                        0                       # What read queue length does an incoming req see
system.mem_ctrl.rdQLenPdf::4                        0                       # What read queue length does an incoming req see
system.mem_ctrl.rdQLenPdf::5                        0                       # What read queue length does an incoming req see
system.mem_ctrl.rdQLenPdf::6                        0                       # What read queue length does an incoming req see
system.mem_ctrl.rdQLenPdf::7                        0                       # What read queue length does an incoming req see
system.mem_ctrl.rdQLenPdf::8                        0                       # What read queue length does an incoming req see
system.mem_ctrl.rdQLenPdf::9                        0                       # What read queue length does an incoming req see
system.mem_ctrl.rdQLenPdf::10                       0                       # What read queue length does an incoming req see
system.mem_ctrl.rdQLenPdf::11                       0                       # What read queue length does an incoming req see
system.mem_ctrl.rdQLenPdf::12                       0                       # What read queue length does an incoming req see
system.mem_ctrl.rdQLenPdf::13                       0                       # What read queue length does an incoming req see
system.mem_ctrl.rdQLenPdf::14                       0                       # What read queue length does an incoming req see
system.mem_ctrl.rdQLenPdf::15                       0                       # What read queue length does an incoming req see
system.mem_ctrl.rdQLenPdf::16                       0                       # What read queue length does an incoming req see
system.mem_ctrl.rdQLenPdf::17                       0                       # What read queue length does an incoming req see
system.mem_ctrl.rdQLenPdf::18                       0                       # What read queue length does an incoming req see
system.mem_ctrl.rdQLenPdf::19                       0                       # What read queue length does an incoming req see
system.mem_ctrl.rdQLenPdf::20                       0                       # What read queue length does an incoming req see
system.mem_ctrl.rdQLenPdf::21                       0                       # What read queue length does an incoming req see
system.mem_ctrl.rdQLenPdf::22                       0                       # What read queue length does an incoming req see
system.mem_ctrl.rdQLenPdf::23                       0                       # What read queue length does an incoming req see
system.mem_ctrl.rdQLenPdf::24                       0                       # What read queue length does an incoming req see
system.mem_ctrl.rdQLenPdf::25                       0                       # What read queue length does an incoming req see
system.mem_ctrl.rdQLenPdf::26                       0                       # What read queue length does an incoming req see
system.mem_ctrl.rdQLenPdf::27                       0                       # What read queue length does an incoming req see
system.mem_ctrl.rdQLenPdf::28                       0                       # What read queue length does an incoming req see
system.mem_ctrl.rdQLenPdf::29                       0                       # What read queue length does an incoming req see
system.mem_ctrl.rdQLenPdf::30                       0                       # What read queue length does an incoming req see
system.mem_ctrl.rdQLenPdf::31                       0                       # What read queue length does an incoming req see
system.mem_ctrl.wrQLenPdf::0                        1                       # What write queue length does an incoming req see
system.mem_ctrl.wrQLenPdf::1                        1                       # What write queue length does an incoming req see
system.mem_ctrl.wrQLenPdf::2                        1                       # What write queue length does an incoming req see
system.mem_ctrl.wrQLenPdf::3                        1                       # What write queue length does an incoming req see
system.mem_ctrl.wrQLenPdf::4                        1                       # What write queue length does an incoming req see
system.mem_ctrl.wrQLenPdf::5                        1                       # What write queue length does an incoming req see
system.mem_ctrl.wrQLenPdf::6                        1                       # What write queue length does an incoming req see
system.mem_ctrl.wrQLenPdf::7                        1                       # What write queue length does an incoming req see
system.mem_ctrl.wrQLenPdf::8                        1                       # What write queue length does an incoming req see
system.mem_ctrl.wrQLenPdf::9                        1                       # What write queue length does an incoming req see
system.mem_ctrl.wrQLenPdf::10                       1                       # What write queue length does an incoming req see
system.mem_ctrl.wrQLenPdf::11                       1                       # What write queue length does an incoming req see
system.mem_ctrl.wrQLenPdf::12                       1                       # What write queue length does an incoming req see
system.mem_ctrl.wrQLenPdf::13                       1                       # What write queue length does an incoming req see
system.mem_ctrl.wrQLenPdf::14                       1                       # What write queue length does an incoming req see
system.mem_ctrl.wrQLenPdf::15                      70                       # What write queue length does an incoming req see
system.mem_ctrl.wrQLenPdf::16                      73                       # What write queue length does an incoming req see
system.mem_ctrl.wrQLenPdf::17                     113                       # What write queue length does an incoming req see
system.mem_ctrl.wrQLenPdf::18                     113                       # What write queue length does an incoming req see
system.mem_ctrl.wrQLenPdf::19                     114                       # What write queue length does an incoming req see
system.mem_ctrl.wrQLenPdf::20                     113                       # What write queue length does an incoming req see
system.mem_ctrl.wrQLenPdf::21                     113                       # What write queue length does an incoming req see
system.mem_ctrl.wrQLenPdf::22                     113                       # What write queue length does an incoming req see
system.mem_ctrl.wrQLenPdf::23                     113                       # What write queue length does an incoming req see
system.mem_ctrl.wrQLenPdf::24                     113                       # What write queue length does an incoming req see
system.mem_ctrl.wrQLenPdf::25                     113                       # What write queue length does an incoming req see
system.mem_ctrl.wrQLenPdf::26                     113                       # What write queue length does an incoming req see
system.mem_ctrl.wrQLenPdf::27                     116                       # What write queue length does an incoming req see
system.mem_ctrl.wrQLenPdf::28                     113                       # What write queue length does an incoming req see
system.mem_ctrl.wrQLenPdf::29                     113                       # What write queue length does an incoming req see
system.mem_ctrl.wrQLenPdf::30                     113                       # What write queue length does an incoming req see
system.mem_ctrl.wrQLenPdf::31                     113                       # What write queue length does an incoming req see
system.mem_ctrl.wrQLenPdf::32                     113                       # What write queue length does an incoming req see
system.mem_ctrl.wrQLenPdf::33                       0                       # What write queue length does an incoming req see
system.mem_ctrl.wrQLenPdf::34                       0                       # What write queue length does an incoming req see
system.mem_ctrl.wrQLenPdf::35                       0                       # What write queue length does an incoming req see
system.mem_ctrl.wrQLenPdf::36                       0                       # What write queue length does an incoming req see
system.mem_ctrl.wrQLenPdf::37                       0                       # What write queue length does an incoming req see
system.mem_ctrl.wrQLenPdf::38                       0                       # What write queue length does an incoming req see
system.mem_ctrl.wrQLenPdf::39                       0                       # What write queue length does an incoming req see
system.mem_ctrl.wrQLenPdf::40                       0                       # What write queue length does an incoming req see
system.mem_ctrl.wrQLenPdf::41                       0                       # What write queue length does an incoming req see
system.mem_ctrl.wrQLenPdf::42                       0                       # What write queue length does an incoming req see
system.mem_ctrl.wrQLenPdf::43                       0                       # What write queue length does an incoming req see
system.mem_ctrl.wrQLenPdf::44                       0                       # What write queue length does an incoming req see
system.mem_ctrl.wrQLenPdf::45                       0                       # What write queue length does an incoming req see
system.mem_ctrl.wrQLenPdf::46                       0                       # What write queue length does an incoming req see
system.mem_ctrl.wrQLenPdf::47                       0                       # What write queue length does an incoming req see
system.mem_ctrl.wrQLenPdf::48                       0                       # What write queue length does an incoming req see
system.mem_ctrl.wrQLenPdf::49                       0                       # What write queue length does an incoming req see
system.mem_ctrl.wrQLenPdf::50                       0                       # What write queue length does an incoming req see
system.mem_ctrl.wrQLenPdf::51                       0                       # What write queue length does an incoming req see
system.mem_ctrl.wrQLenPdf::52                       0                       # What write queue length does an incoming req see
system.mem_ctrl.wrQLenPdf::53                       0                       # What write queue length does an incoming req see
system.mem_ctrl.wrQLenPdf::54                       0                       # What write queue length does an incoming req see
system.mem_ctrl.wrQLenPdf::55                       0                       # What write queue length does an incoming req see
system.mem_ctrl.wrQLenPdf::56                       0                       # What write queue length does an incoming req see
system.mem_ctrl.wrQLenPdf::57                       0                       # What write queue length does an incoming req see
system.mem_ctrl.wrQLenPdf::58                       0                       # What write queue length does an incoming req see
system.mem_ctrl.wrQLenPdf::59                       0                       # What write queue length does an incoming req see
system.mem_ctrl.wrQLenPdf::60                       0                       # What write queue length does an incoming req see
system.mem_ctrl.wrQLenPdf::61                       0                       # What write queue length does an incoming req see
system.mem_ctrl.wrQLenPdf::62                       0                       # What write queue length does an incoming req see
system.mem_ctrl.wrQLenPdf::63                       0                       # What write queue length does an incoming req see
system.mem_ctrl.bytesPerActivate::samples         6850                       # Bytes accessed per row activation
system.mem_ctrl.bytesPerActivate::mean     165.699270                       # Bytes accessed per row activation
system.mem_ctrl.bytesPerActivate::gmean    126.654941                       # Bytes accessed per row activation
system.mem_ctrl.bytesPerActivate::stdev    147.340037                       # Bytes accessed per row activation
system.mem_ctrl.bytesPerActivate::0-127          2861     41.77%     41.77% # Bytes accessed per row activation
system.mem_ctrl.bytesPerActivate::128-255         2401     35.05%     76.82% # Bytes accessed per row activation
system.mem_ctrl.bytesPerActivate::256-383         1035     15.11%     91.93% # Bytes accessed per row activation
system.mem_ctrl.bytesPerActivate::384-511          274      4.00%     95.93% # Bytes accessed per row activation
system.mem_ctrl.bytesPerActivate::512-639          114      1.66%     97.59% # Bytes accessed per row activation
system.mem_ctrl.bytesPerActivate::640-767           70      1.02%     98.61% # Bytes accessed per row activation
system.mem_ctrl.bytesPerActivate::768-895           41      0.60%     99.21% # Bytes accessed per row activation
system.mem_ctrl.bytesPerActivate::896-1023           18      0.26%     99.47% # Bytes accessed per row activation
system.mem_ctrl.bytesPerActivate::1024-1151           36      0.53%    100.00% # Bytes accessed per row activation
system.mem_ctrl.bytesPerActivate::total          6850                       # Bytes accessed per row activation
system.mem_ctrl.rdPerTurnAround::samples          113                       # Reads before turning the bus around for writes
system.mem_ctrl.rdPerTurnAround::mean      139.548673                       # Reads before turning the bus around for writes
system.mem_ctrl.rdPerTurnAround::gmean     106.257199                       # Reads before turning the bus around for writes
system.mem_ctrl.rdPerTurnAround::stdev     125.173950                       # Reads before turning the bus around for writes
system.mem_ctrl.rdPerTurnAround::0-31               5      4.42%      4.42% # Reads before turning the bus around for writes
system.mem_ctrl.rdPerTurnAround::32-63             20     17.70%     22.12% # Reads before turning the bus around for writes
system.mem_ctrl.rdPerTurnAround::64-95             23     20.35%     42.48% # Reads before turning the bus around for writes
system.mem_ctrl.rdPerTurnAround::96-127            16     14.16%     56.64% # Reads before turning the bus around for writes
system.mem_ctrl.rdPerTurnAround::128-159           18     15.93%     72.57% # Reads before turning the bus around for writes
system.mem_ctrl.rdPerTurnAround::160-191           10      8.85%     81.42% # Reads before turning the bus around for writes
system.mem_ctrl.rdPerTurnAround::192-223            6      5.31%     86.73% # Reads before turning the bus around for writes
system.mem_ctrl.rdPerTurnAround::224-255            3      2.65%     89.38% # Reads before turning the bus around for writes
system.mem_ctrl.rdPerTurnAround::256-287            5      4.42%     93.81% # Reads before turning the bus around for writes
system.mem_ctrl.rdPerTurnAround::288-319            1      0.88%     94.69% # Reads before turning the bus around for writes
system.mem_ctrl.rdPerTurnAround::320-351            1      0.88%     95.58% # Reads before turning the bus around for writes
system.mem_ctrl.rdPerTurnAround::384-415            1      0.88%     96.46% # Reads before turning the bus around for writes
system.mem_ctrl.rdPerTurnAround::512-543            1      0.88%     97.35% # Reads before turning the bus around for writes
system.mem_ctrl.rdPerTurnAround::576-607            2      1.77%     99.12% # Reads before turning the bus around for writes
system.mem_ctrl.rdPerTurnAround::864-895            1      0.88%    100.00% # Reads before turning the bus around for writes
system.mem_ctrl.rdPerTurnAround::total            113                       # Reads before turning the bus around for writes
system.mem_ctrl.wrPerTurnAround::samples          113                       # Writes before turning the bus around for reads
system.mem_ctrl.wrPerTurnAround::mean       17.292035                       # Writes before turning the bus around for reads
system.mem_ctrl.wrPerTurnAround::gmean      17.263065                       # Writes before turning the bus around for reads
system.mem_ctrl.wrPerTurnAround::stdev       0.997151                       # Writes before turning the bus around for reads
system.mem_ctrl.wrPerTurnAround::16                40     35.40%     35.40% # Writes before turning the bus around for reads
system.mem_ctrl.wrPerTurnAround::17                 4      3.54%     38.94% # Writes before turning the bus around for reads
system.mem_ctrl.wrPerTurnAround::18                65     57.52%     96.46% # Writes before turning the bus around for reads
system.mem_ctrl.wrPerTurnAround::19                 4      3.54%    100.00% # Writes before turning the bus around for reads
system.mem_ctrl.wrPerTurnAround::total            113                       # Writes before turning the bus around for reads
system.mem_ctrl.bytesReadDRAM                 1010176                       # Total number of bytes read from DRAM
system.mem_ctrl.bytesReadWrQ                    42432                       # Total number of bytes read from write queue
system.mem_ctrl.bytesWritten                   125056                       # Total number of bytes written to DRAM
system.mem_ctrl.bytesReadSys                  1052608                       # Total read bytes from the system interface side
system.mem_ctrl.bytesWrittenSys                188672                       # Total written bytes from the system interface side
system.mem_ctrl.avgRdBW                        217.25                       # Average DRAM read bandwidth in MiByte/s
system.mem_ctrl.avgWrBW                         26.89                       # Average achieved write bandwidth in MiByte/s
system.mem_ctrl.avgRdBWSys                     226.37                       # Average system read bandwidth in MiByte/s
system.mem_ctrl.avgWrBWSys                      40.58                       # Average system write bandwidth in MiByte/s
system.mem_ctrl.peakBW                       12800.00                       # Theoretical peak bandwidth in MiByte/s
system.mem_ctrl.busUtil                          1.91                       # Data bus utilization in percentage
system.mem_ctrl.busUtilRead                      1.70                       # Data bus utilization in percentage for reads
system.mem_ctrl.busUtilWrite                     0.21                       # Data bus utilization in percentage for writes
system.mem_ctrl.totGap                     4648876000                       # Total gap between requests
system.mem_ctrl.avgGap                      239694.56                       # Average gap between requests
system.mem_ctrl.masterReadBytes::.cpu.inst       797888                       # Per-master bytes read from memory
system.mem_ctrl.masterReadBytes::.cpu.data       212288                       # Per-master bytes read from memory
system.mem_ctrl.masterWriteBytes::.writebacks       125056                       # Per-master bytes write to memory
system.mem_ctrl.masterReadRate::.cpu.inst 171593466.833724945784                       # Per-master bytes read from memory rate (Bytes/sec)
system.mem_ctrl.masterReadRate::.cpu.data 45654570.424919039011                       # Per-master bytes read from memory rate (Bytes/sec)
system.mem_ctrl.masterWriteRate::.writebacks 26894492.194842267781                       # Per-master bytes write to memory rate (Bytes/sec)
system.mem_ctrl.masterReadAccesses::.cpu.inst        12467                       # Per-master read serviced memory accesses
system.mem_ctrl.masterReadAccesses::.cpu.data         3980                       # Per-master read serviced memory accesses
system.mem_ctrl.masterWriteAccesses::.writebacks         2948                       # Per-master write serviced memory accesses
system.mem_ctrl.masterReadTotalLat::.cpu.inst    381030750                       # Per-master read total memory access latency
system.mem_ctrl.masterReadTotalLat::.cpu.data    103939500                       # Per-master read total memory access latency
system.mem_ctrl.masterWriteTotalLat::.writebacks 110626237000                       # Per-master write total memory access latency
system.mem_ctrl.masterReadAvgLat::.cpu.inst     30563.15                       # Per-master read average memory access latency
system.mem_ctrl.masterReadAvgLat::.cpu.data     26115.45                       # Per-master read average memory access latency
system.mem_ctrl.masterWriteAvgLat::.writebacks  37525860.58                       # Per-master write average memory access latency
system.mem_ctrl.pageHitRate                     61.32                       # Row buffer hit rate, read and write combined
system.mem_ctrl.rank1.actEnergy              30509220                       # Energy for activate commands per rank (pJ)
system.mem_ctrl.rank1.preEnergy              16212240                       # Energy for precharge commands per rank (pJ)
system.mem_ctrl.rank1.readEnergy             69179460                       # Energy for read commands per rank (pJ)
system.mem_ctrl.rank1.writeEnergy             6608520                       # Energy for write commands per rank (pJ)
system.mem_ctrl.rank1.refreshEnergy      366940080.000000                       # Energy for refresh commands per rank (pJ)
system.mem_ctrl.rank1.actBackEnergy        1952564640                       # Energy for active background per rank (pJ)
system.mem_ctrl.rank1.preBackEnergy         141287040                       # Energy for precharge background per rank (pJ)
system.mem_ctrl.rank1.actPowerDownEnergy            0                       # Energy for active power-down per rank (pJ)
system.mem_ctrl.rank1.prePowerDownEnergy            0                       # Energy for precharge power-down per rank (pJ)
system.mem_ctrl.rank1.selfRefreshEnergy             0                       # Energy for self refresh per rank (pJ)
system.mem_ctrl.rank1.totalEnergy          2583301200                       # Total energy per rank (pJ)
system.mem_ctrl.rank1.averagePower         555.563699                       # Core power per rank (mW)
system.mem_ctrl.rank1.totalIdleTime                 0                       # Total Idle time Per DRAM Rank
system.mem_ctrl.rank1.memoryStateTime::IDLE    349530500                       # Time in different power states
system.mem_ctrl.rank1.memoryStateTime::REF    155220000                       # Time in different power states
system.mem_ctrl.rank1.memoryStateTime::SREF            0                       # Time in different power states
system.mem_ctrl.rank1.memoryStateTime::PRE_PDN            0                       # Time in different power states
system.mem_ctrl.rank1.memoryStateTime::ACT   4145123500                       # Time in different power states
system.mem_ctrl.rank1.memoryStateTime::ACT_PDN            0                       # Time in different power states
system.mem_ctrl.rank0.actEnergy              18406920                       # Energy for activate commands per rank (pJ)
system.mem_ctrl.rank0.preEnergy               9783510                       # Energy for precharge commands per rank (pJ)
system.mem_ctrl.rank0.readEnergy             43518300                       # Energy for read commands per rank (pJ)
system.mem_ctrl.rank0.writeEnergy             3591360                       # Energy for write commands per rank (pJ)
system.mem_ctrl.rank0.refreshEnergy      366940080.000000                       # Energy for refresh commands per rank (pJ)
system.mem_ctrl.rank0.actBackEnergy        1709912220                       # Energy for active background per rank (pJ)
system.mem_ctrl.rank0.preBackEnergy         345625920                       # Energy for precharge background per rank (pJ)
system.mem_ctrl.rank0.actPowerDownEnergy            0                       # Energy for active power-down per rank (pJ)
system.mem_ctrl.rank0.prePowerDownEnergy            0                       # Energy for precharge power-down per rank (pJ)
system.mem_ctrl.rank0.selfRefreshEnergy             0                       # Energy for self refresh per rank (pJ)
system.mem_ctrl.rank0.totalEnergy          2497778310                       # Total energy per rank (pJ)
system.mem_ctrl.rank0.averagePower         537.171181                       # Core power per rank (mW)
system.mem_ctrl.rank0.totalIdleTime                 0                       # Total Idle time Per DRAM Rank
system.mem_ctrl.rank0.memoryStateTime::IDLE    882222750                       # Time in different power states
system.mem_ctrl.rank0.memoryStateTime::REF    155220000                       # Time in different power states
system.mem_ctrl.rank0.memoryStateTime::SREF            0                       # Time in different power states
system.mem_ctrl.rank0.memoryStateTime::PRE_PDN            0                       # Time in different power states
system.mem_ctrl.rank0.memoryStateTime::ACT   3612431250                       # Time in different power states
system.mem_ctrl.rank0.memoryStateTime::ACT_PDN            0                       # Time in different power states
system.mem_ctrl.power_state.pwrStateResidencyTicks::UNDEFINED   4649874000                       # Cumulative time (in ticks) in various power states
system.cache_medium.blocked_cycles::no_mshrs            0                       # number of cycles access was blocked
system.cache_medium.blocked_cycles::no_targets            0                       # number of cycles access was blocked
system.cache_medium.blocked::no_mshrs               0                       # number of cycles access was blocked
system.cache_medium.blocked::no_targets             0                       # number of cycles access was blocked
system.cache_medium.avg_blocked_cycles::no_mshrs          nan                       # average number of cycles each access was blocked
system.cache_medium.avg_blocked_cycles::no_targets          nan                       # average number of cycles each access was blocked
system.cache_medium.replacements                    0                       # number of replacements
system.cache_medium.power_state.pwrStateResidencyTicks::UNDEFINED   4649874000                       # Cumulative time (in ticks) in various power states
system.cache_medium.tags.tagsinuse                  0                       # Cycle average of tags in use
system.cache_medium.tags.total_refs                 0                       # Total number of references to valid blocks.
system.cache_medium.tags.sampled_refs               0                       # Sample count of references to valid blocks.
system.cache_medium.tags.avg_refs                 nan                       # Average number of references to valid blocks.
system.cache_medium.tags.warmup_cycle               0                       # Cycle when the warmup percentage was hit.
system.cache_medium.tags.tag_accesses               0                       # Number of tag accesses
system.cache_medium.tags.data_accesses              0                       # Number of data accesses
system.cache_medium.tags.power_state.pwrStateResidencyTicks::UNDEFINED   4649874000                       # Cumulative time (in ticks) in various power states
system.clk_domain.clock                          1000                       # Clock period in ticks
system.clk_domain.voltage_domain.voltage            1                       # Voltage in Volts
system.dcache.demand_hits::.cpu.data           333963                       # number of demand (read+write) hits
system.dcache.demand_hits::total               333963                       # number of demand (read+write) hits
system.dcache.overall_hits::.cpu.data          333963                       # number of overall hits
system.dcache.overall_hits::total              333963                       # number of overall hits
system.dcache.demand_misses::.cpu.data           7127                       # number of demand (read+write) misses
system.dcache.demand_misses::total               7127                       # number of demand (read+write) misses
system.dcache.overall_misses::.cpu.data          7127                       # number of overall misses
system.dcache.overall_misses::total              7127                       # number of overall misses
system.dcache.demand_miss_latency::.cpu.data    329002000                       # number of demand (read+write) miss cycles
system.dcache.demand_miss_latency::total    329002000                       # number of demand (read+write) miss cycles
system.dcache.overall_miss_latency::.cpu.data    329002000                       # number of overall miss cycles
system.dcache.overall_miss_latency::total    329002000                       # number of overall miss cycles
system.dcache.demand_accesses::.cpu.data       341090                       # number of demand (read+write) accesses
system.dcache.demand_accesses::total           341090                       # number of demand (read+write) accesses
system.dcache.overall_accesses::.cpu.data       341090                       # number of overall (read+write) accesses
system.dcache.overall_accesses::total          341090                       # number of overall (read+write) accesses
system.dcache.demand_miss_rate::.cpu.data     0.020895                       # miss rate for demand accesses
system.dcache.demand_miss_rate::total        0.020895                       # miss rate for demand accesses
system.dcache.overall_miss_rate::.cpu.data     0.020895                       # miss rate for overall accesses
system.dcache.overall_miss_rate::total       0.020895                       # miss rate for overall accesses
system.dcache.demand_avg_miss_latency::.cpu.data 46162.761330                       # average overall miss latency
system.dcache.demand_avg_miss_latency::total 46162.761330                       # average overall miss latency
system.dcache.overall_avg_miss_latency::.cpu.data 46162.761330                       # average overall miss latency
system.dcache.overall_avg_miss_latency::total 46162.761330                       # average overall miss latency
system.dcache.blocked_cycles::no_mshrs              0                       # number of cycles access was blocked
system.dcache.blocked_cycles::no_targets            0                       # number of cycles access was blocked
system.dcache.blocked::no_mshrs                     0                       # number of cycles access was blocked
system.dcache.blocked::no_targets                   0                       # number of cycles access was blocked
system.dcache.avg_blocked_cycles::no_mshrs          nan                       # average number of cycles each access was blocked
system.dcache.avg_blocked_cycles::no_targets          nan                       # average number of cycles each access was blocked
system.dcache.writebacks::.writebacks            3963                       # number of writebacks
system.dcache.writebacks::total                  3963                       # number of writebacks
system.dcache.demand_mshr_misses::.cpu.data         7127                       # number of demand (read+write) MSHR misses
system.dcache.demand_mshr_misses::total          7127                       # number of demand (read+write) MSHR misses
system.dcache.overall_mshr_misses::.cpu.data         7127                       # number of overall MSHR misses
system.dcache.overall_mshr_misses::total         7127                       # number of overall MSHR misses
system.dcache.demand_mshr_miss_latency::.cpu.data    314748000                       # number of demand (read+write) MSHR miss cycles
system.dcache.demand_mshr_miss_latency::total    314748000                       # number of demand (read+write) MSHR miss cycles
system.dcache.overall_mshr_miss_latency::.cpu.data    314748000                       # number of overall MSHR miss cycles
system.dcache.overall_mshr_miss_latency::total    314748000                       # number of overall MSHR miss cycles
system.dcache.demand_mshr_miss_rate::.cpu.data     0.020895                       # mshr miss rate for demand accesses
system.dcache.demand_mshr_miss_rate::total     0.020895                       # mshr miss rate for demand accesses
system.dcache.overall_mshr_miss_rate::.cpu.data     0.020895                       # mshr miss rate for overall accesses
system.dcache.overall_mshr_miss_rate::total     0.020895                       # mshr miss rate for overall accesses
system.dcache.demand_avg_mshr_miss_latency::.cpu.data 44162.761330                       # average overall mshr miss latency
system.dcache.demand_avg_mshr_miss_latency::total 44162.761330                       # average overall mshr miss latency
system.dcache.overall_avg_mshr_miss_latency::.cpu.data 44162.761330                       # average overall mshr miss latency
system.dcache.overall_avg_mshr_miss_latency::total 44162.761330                       # average overall mshr miss latency
system.dcache.replacements                       6871                       # number of replacements
system.dcache.ReadReq_hits::.cpu.data          197308                       # number of ReadReq hits
system.dcache.ReadReq_hits::total              197308                       # number of ReadReq hits
system.dcache.ReadReq_misses::.cpu.data          4343                       # number of ReadReq misses
system.dcache.ReadReq_misses::total              4343                       # number of ReadReq misses
system.dcache.ReadReq_miss_latency::.cpu.data    176203000                       # number of ReadReq miss cycles
system.dcache.ReadReq_miss_latency::total    176203000                       # number of ReadReq miss cycles
system.dcache.ReadReq_accesses::.cpu.data       201651                       # number of ReadReq accesses(hits+misses)
system.dcache.ReadReq_accesses::total          201651                       # number of ReadReq accesses(hits+misses)
system.dcache.ReadReq_miss_rate::.cpu.data     0.021537                       # miss rate for ReadReq accesses
system.dcache.ReadReq_miss_rate::total       0.021537                       # miss rate for ReadReq accesses
system.dcache.ReadReq_avg_miss_latency::.cpu.data 40571.724614                       # average ReadReq miss latency
system.dcache.ReadReq_avg_miss_latency::total 40571.724614                       # average ReadReq miss latency
system.dcache.ReadReq_mshr_misses::.cpu.data         4343                       # number of ReadReq MSHR misses
system.dcache.ReadReq_mshr_misses::total         4343                       # number of ReadReq MSHR misses
system.dcache.ReadReq_mshr_miss_latency::.cpu.data    167517000                       # number of ReadReq MSHR miss cycles
system.dcache.ReadReq_mshr_miss_latency::total    167517000                       # number of ReadReq MSHR miss cycles
system.dcache.ReadReq_mshr_miss_rate::.cpu.data     0.021537                       # mshr miss rate for ReadReq accesses
system.dcache.ReadReq_mshr_miss_rate::total     0.021537                       # mshr miss rate for ReadReq accesses
system.dcache.ReadReq_avg_mshr_miss_latency::.cpu.data 38571.724614                       # average ReadReq mshr miss latency
system.dcache.ReadReq_avg_mshr_miss_latency::total 38571.724614                       # average ReadReq mshr miss latency
system.dcache.WriteReq_hits::.cpu.data         136655                       # number of WriteReq hits
system.dcache.WriteReq_hits::total             136655                       # number of WriteReq hits
system.dcache.WriteReq_misses::.cpu.data         2784                       # number of WriteReq misses
system.dcache.WriteReq_misses::total             2784                       # number of WriteReq misses
system.dcache.WriteReq_miss_latency::.cpu.data    152799000                       # number of WriteReq miss cycles
system.dcache.WriteReq_miss_latency::total    152799000                       # number of WriteReq miss cycles
system.dcache.WriteReq_accesses::.cpu.data       139439                       # number of WriteReq accesses(hits+misses)
system.dcache.WriteReq_accesses::total         139439                       # number of WriteReq accesses(hits+misses)
system.dcache.WriteReq_miss_rate::.cpu.data     0.019966                       # miss rate for WriteReq accesses
system.dcache.WriteReq_miss_rate::total      0.019966                       # miss rate for WriteReq accesses
system.dcache.WriteReq_avg_miss_latency::.cpu.data 54884.698276                       # average WriteReq miss latency
system.dcache.WriteReq_avg_miss_latency::total 54884.698276                       # average WriteReq miss latency
system.dcache.WriteReq_mshr_misses::.cpu.data         2784                       # number of WriteReq MSHR misses
system.dcache.WriteReq_mshr_misses::total         2784                       # number of WriteReq MSHR misses
system.dcache.WriteReq_mshr_miss_latency::.cpu.data    147231000                       # number of WriteReq MSHR miss cycles
system.dcache.WriteReq_mshr_miss_latency::total    147231000                       # number of WriteReq MSHR miss cycles
system.dcache.WriteReq_mshr_miss_rate::.cpu.data     0.019966                       # mshr miss rate for WriteReq accesses
system.dcache.WriteReq_mshr_miss_rate::total     0.019966                       # mshr miss rate for WriteReq accesses
system.dcache.WriteReq_avg_mshr_miss_latency::.cpu.data 52884.698276                       # average WriteReq mshr miss latency
system.dcache.WriteReq_avg_mshr_miss_latency::total 52884.698276                       # average WriteReq mshr miss latency
system.dcache.power_state.pwrStateResidencyTicks::UNDEFINED   4649874000                       # Cumulative time (in ticks) in various power states
system.dcache.tags.tagsinuse               251.363170                       # Cycle average of tags in use
system.dcache.tags.total_refs                  291894                       # Total number of references to valid blocks.
system.dcache.tags.sampled_refs                  6871                       # Sample count of references to valid blocks.
system.dcache.tags.avg_refs                 42.482026                       # Average number of references to valid blocks.
system.dcache.tags.warmup_cycle                181000                       # Cycle when the warmup percentage was hit.
system.dcache.tags.occ_blocks::.cpu.data   251.363170                       # Average occupied blocks per requestor
system.dcache.tags.occ_percent::.cpu.data     0.981887                       # Average percentage of cache occupancy
system.dcache.tags.occ_percent::total        0.981887                       # Average percentage of cache occupancy
system.dcache.tags.occ_task_id_blocks::1024          256                       # Occupied blocks per task id
system.dcache.tags.age_task_id_blocks_1024::0           14                       # Occupied blocks per task id
system.dcache.tags.age_task_id_blocks_1024::1           26                       # Occupied blocks per task id
system.dcache.tags.age_task_id_blocks_1024::2          140                       # Occupied blocks per task id
system.dcache.tags.age_task_id_blocks_1024::3           76                       # Occupied blocks per task id
system.dcache.tags.occ_task_id_percent::1024            1                       # Percentage of cache occupancy per task id
system.dcache.tags.tag_accesses                348217                       # Number of tag accesses
system.dcache.tags.data_accesses               348217                       # Number of data accesses
system.dcache.tags.power_state.pwrStateResidencyTicks::UNDEFINED   4649874000                       # Cumulative time (in ticks) in various power states
system.cache_large.blocked_cycles::no_mshrs            0                       # number of cycles access was blocked
system.cache_large.blocked_cycles::no_targets            0                       # number of cycles access was blocked
system.cache_large.blocked::no_mshrs                0                       # number of cycles access was blocked
system.cache_large.blocked::no_targets              0                       # number of cycles access was blocked
system.cache_large.avg_blocked_cycles::no_mshrs          nan                       # average number of cycles each access was blocked
system.cache_large.avg_blocked_cycles::no_targets          nan                       # average number of cycles each access was blocked
system.cache_large.replacements                     0                       # number of replacements
system.cache_large.power_state.pwrStateResidencyTicks::UNDEFINED   4649874000                       # Cumulative time (in ticks) in various power states
system.cache_large.tags.tagsinuse                   0                       # Cycle average of tags in use
system.cache_large.tags.total_refs                  0                       # Total number of references to valid blocks.
system.cache_large.tags.sampled_refs                0                       # Sample count of references to valid blocks.
system.cache_large.tags.avg_refs                  nan                       # Average number of references to valid blocks.
system.cache_large.tags.warmup_cycle                0                       # Cycle when the warmup percentage was hit.
system.cache_large.tags.tag_accesses                0                       # Number of tag accesses
system.cache_large.tags.data_accesses               0                       # Number of data accesses
system.cache_large.tags.power_state.pwrStateResidencyTicks::UNDEFINED   4649874000                       # Cumulative time (in ticks) in various power states
system.l2cache.demand_hits::.cpu.inst            3611                       # number of demand (read+write) hits
system.l2cache.demand_hits::.cpu.data            3147                       # number of demand (read+write) hits
system.l2cache.demand_hits::total                6758                       # number of demand (read+write) hits
system.l2cache.overall_hits::.cpu.inst           3611                       # number of overall hits
system.l2cache.overall_hits::.cpu.data           3147                       # number of overall hits
system.l2cache.overall_hits::total               6758                       # number of overall hits
system.l2cache.demand_misses::.cpu.inst         12468                       # number of demand (read+write) misses
system.l2cache.demand_misses::.cpu.data          3980                       # number of demand (read+write) misses
system.l2cache.demand_misses::total             16448                       # number of demand (read+write) misses
system.l2cache.overall_misses::.cpu.inst        12468                       # number of overall misses
system.l2cache.overall_misses::.cpu.data         3980                       # number of overall misses
system.l2cache.overall_misses::total            16448                       # number of overall misses
[...]
system.dcache.tags.age_task_id_blocks_1024::1           66                       # Occupied blocks per task id
system.dcache.tags.age_task_id_blocks_1024::2          183                       # Occupied blocks per task id
system.dcache.tags.occ_task_id_percent::1024            1                       # Percentage of cache occupancy per task id
system.dcache.tags.tag_accesses               1470231                       # Number of tag accesses
system.dcache.tags.data_accesses              1470231                       # Number of data accesses
system.dcache.tags.power_state.pwrStateResidencyTicks::UNDEFINED  19716852000                       # Cumulative time (in ticks) in various power states
system.cache_large.blocked_cycles::no_mshrs            0                       # number of cycles access was blocked
system.cache_large.blocked_cycles::no_targets            0                       # number of cycles access was blocked
system.cache_large.blocked::no_mshrs                0                       # number of cycles access was blocked
system.cache_large.blocked::no_targets              0                       # number of cycles access was blocked
system.cache_large.avg_blocked_cycles::no_mshrs          nan                       # average number of cycles each access was blocked
system.cache_large.avg_blocked_cycles::no_targets          nan                       # average number of cycles each access was blocked
system.cache_large.replacements                     0                       # number of replacements
system.cache_large.power_state.pwrStateResidencyTicks::UNDEFINED  19716852000                       # Cumulative time (in ticks) in various power states
system.cache_large.tags.tagsinuse                   0                       # Cycle average of tags in use
system.cache_large.tags.total_refs                  0                       # Total number of references to valid blocks.
system.cache_large.tags.sampled_refs                0                       # Sample count of references to valid blocks.
system.cache_large.tags.avg_refs                  nan                       # Average number of references to valid blocks.
system.cache_large.tags.warmup_cycle                0                       # Cycle when the warmup percentage was hit.
system.cache_large.tags.tag_accesses                0                       # Number of tag accesses
system.cache_large.tags.data_accesses               0                       # Number of data accesses
system.cache_large.tags.power_state.pwrStateResidencyTicks::UNDEFINED  19716852000                       # Cumulative time (in ticks) in various power states
system.l2cache.demand_hits::.cpu.inst            6903                       # number of demand (read+write) hits
system.l2cache.demand_hits::.cpu.data            9609                       # number of demand (read+write) hits
system.l2cache.demand_hits::total               16512                       # number of demand (read+write) hits
system.l2cache.overall_hits::.cpu.inst           6903                       # number of overall hits
system.l2cache.overall_hits::.cpu.data           9609                       # number of overall hits
system.l2cache.overall_hits::total              16512                       # number of overall hits
system.l2cache.demand_misses::.cpu.inst         22265                       # number of demand (read+write) misses
system.l2cache.demand_misses::.cpu.data         28674                       # number of demand (read+write) misses
system.l2cache.demand_misses::total             50939                       # number of demand (read+write) misses
system.l2cache.overall_misses::.cpu.inst        22265                       # number of overall misses
system.l2cache.overall_misses::.cpu.data        28674                       # number of overall misses
system.l2cache.overall_misses::total            50939                       # number of overall misses
system.l2cache.demand_miss_latency::.cpu.inst   1585079000                       # number of demand (read+write) miss cycles
system.l2cache.demand_miss_latency::.cpu.data   1908646000                       # number of demand (read+write) miss cycles
system.l2cache.demand_miss_latency::total   3493725000                       # number of demand (read+write) miss cycles
system.l2cache.overall_miss_latency::.cpu.inst   1585079000                       # number of overall miss cycles
system.l2cache.overall_miss_latency::.cpu.data   1908646000                       # number of overall miss cycles
system.l2cache.overall_miss_latency::total   3493725000                       # number of overall miss cycles
system.l2cache.demand_accesses::.cpu.inst        29168                       # number of demand (read+write) accesses
system.l2cache.demand_accesses::.cpu.data        38283                       # number of demand (read+write) accesses
system.l2cache.demand_accesses::total           67451                       # number of demand (read+write) accesses
system.l2cache.overall_accesses::.cpu.inst        29168                       # number of overall (read+write) accesses
system.l2cache.overall_accesses::.cpu.data        38283                       # number of overall (read+write) accesses
system.l2cache.overall_accesses::total          67451                       # number of overall (read+write) accesses
system.l2cache.demand_miss_rate::.cpu.inst     0.763337                       # miss rate for demand accesses
system.l2cache.demand_miss_rate::.cpu.data     0.749001                       # miss rate for demand accesses
system.l2cache.demand_miss_rate::total       0.755200                       # miss rate for demand accesses
system.l2cache.overall_miss_rate::.cpu.inst     0.763337                       # miss rate for overall accesses
system.l2cache.overall_miss_rate::.cpu.data     0.749001                       # miss rate for overall accesses
system.l2cache.overall_miss_rate::total      0.755200                       # miss rate for overall accesses
system.l2cache.demand_avg_miss_latency::.cpu.inst 71191.511341                       # average overall miss latency
system.l2cache.demand_avg_miss_latency::.cpu.data 66563.646509                       # average overall miss latency
system.l2cache.demand_avg_miss_latency::total 68586.446534                       # average overall miss latency
system.l2cache.overall_avg_miss_latency::.cpu.inst 71191.511341                       # average overall miss latency
system.l2cache.overall_avg_miss_latency::.cpu.data 66563.646509                       # average overall miss latency
system.l2cache.overall_avg_miss_latency::total 68586.446534                       # average overall miss latency
system.l2cache.blocked_cycles::no_mshrs             0                       # number of cycles access was blocked
system.l2cache.blocked_cycles::no_targets            0                       # number of cycles access was blocked
system.l2cache.blocked::no_mshrs                    0                       # number of cycles access was blocked
system.l2cache.blocked::no_targets                  0                       # number of cycles access was blocked
system.l2cache.avg_blocked_cycles::no_mshrs          nan                       # average number of cycles each access was blocked
system.l2cache.avg_blocked_cycles::no_targets          nan                       # average number of cycles each access was blocked
system.l2cache.writebacks::.writebacks           8459                       # number of writebacks
system.l2cache.writebacks::total                 8459                       # number of writebacks
system.l2cache.demand_mshr_misses::.cpu.inst        22265                       # number of demand (read+write) MSHR misses
system.l2cache.demand_mshr_misses::.cpu.data        28674                       # number of demand (read+write) MSHR misses
system.l2cache.demand_mshr_misses::total        50939                       # number of demand (read+write) MSHR misses
system.l2cache.overall_mshr_misses::.cpu.inst        22265                       # number of overall MSHR misses
system.l2cache.overall_mshr_misses::.cpu.data        28674                       # number of overall MSHR misses
system.l2cache.overall_mshr_misses::total        50939                       # number of overall MSHR misses
system.l2cache.demand_mshr_miss_latency::.cpu.inst   1540549000                       # number of demand (read+write) MSHR miss cycles
system.l2cache.demand_mshr_miss_latency::.cpu.data   1851298000                       # number of demand (read+write) MSHR miss cycles
system.l2cache.demand_mshr_miss_latency::total   3391847000                       # number of demand (read+write) MSHR miss cycles
system.l2cache.overall_mshr_miss_latency::.cpu.inst   1540549000                       # number of overall MSHR miss cycles
system.l2cache.overall_mshr_miss_latency::.cpu.data   1851298000                       # number of overall MSHR miss cycles
system.l2cache.overall_mshr_miss_latency::total   3391847000                       # number of overall MSHR miss cycles
system.l2cache.demand_mshr_miss_rate::.cpu.inst     0.763337                       # mshr miss rate for demand accesses
system.l2cache.demand_mshr_miss_rate::.cpu.data     0.749001                       # mshr miss rate for demand accesses
system.l2cache.demand_mshr_miss_rate::total     0.755200                       # mshr miss rate for demand accesses
system.l2cache.overall_mshr_miss_rate::.cpu.inst     0.763337                       # mshr miss rate for overall accesses
system.l2cache.overall_mshr_miss_rate::.cpu.data     0.749001                       # mshr miss rate for overall accesses
system.l2cache.overall_mshr_miss_rate::total     0.755200                       # mshr miss rate for overall accesses
system.l2cache.demand_avg_mshr_miss_latency::.cpu.inst 69191.511341                       # average overall mshr miss latency
system.l2cache.demand_avg_mshr_miss_latency::.cpu.data 64563.646509                       # average overall mshr miss latency
system.l2cache.demand_avg_mshr_miss_latency::total 66586.446534                       # average overall mshr miss latency
system.l2cache.overall_avg_mshr_miss_latency::.cpu.inst 69191.511341                       # average overall mshr miss latency
system.l2cache.overall_avg_mshr_miss_latency::.cpu.data 64563.646509                       # average overall mshr miss latency
system.l2cache.overall_avg_mshr_miss_latency::total 66586.446534                       # average overall mshr miss latency
system.l2cache.replacements                     56511                       # number of replacements
system.l2cache.ReadReq_hits::.cpu.inst           6903                       # number of ReadReq hits
system.l2cache.ReadReq_hits::.cpu.data           9609                       # number of ReadReq hits
system.l2cache.ReadReq_hits::total              16512                       # number of ReadReq hits
system.l2cache.ReadReq_misses::.cpu.inst        22265                       # number of ReadReq misses
system.l2cache.ReadReq_misses::.cpu.data        28674                       # number of ReadReq misses
system.l2cache.ReadReq_misses::total            50939                       # number of ReadReq misses
system.l2cache.ReadReq_miss_latency::.cpu.inst   1585079000                       # number of ReadReq miss cycles
system.l2cache.ReadReq_miss_latency::.cpu.data   1908646000                       # number of ReadReq miss cycles
system.l2cache.ReadReq_miss_latency::total   3493725000                       # number of ReadReq miss cycles
system.l2cache.ReadReq_accesses::.cpu.inst        29168                       # number of ReadReq accesses(hits+misses)
system.l2cache.ReadReq_accesses::.cpu.data        38283                       # number of ReadReq accesses(hits+misses)
system.l2cache.ReadReq_accesses::total          67451                       # number of ReadReq accesses(hits+misses)
system.l2cache.ReadReq_miss_rate::.cpu.inst     0.763337                       # miss rate for ReadReq accesses
system.l2cache.ReadReq_miss_rate::.cpu.data     0.749001                       # miss rate for ReadReq accesses
system.l2cache.ReadReq_miss_rate::total      0.755200                       # miss rate for ReadReq accesses
system.l2cache.ReadReq_avg_miss_latency::.cpu.inst 71191.511341                       # average ReadReq miss latency
system.l2cache.ReadReq_avg_miss_latency::.cpu.data 66563.646509                       # average ReadReq miss latency
system.l2cache.ReadReq_avg_miss_latency::total 68586.446534                       # average ReadReq miss latency
system.l2cache.ReadReq_mshr_misses::.cpu.inst        22265                       # number of ReadReq MSHR misses
system.l2cache.ReadReq_mshr_misses::.cpu.data        28674                       # number of ReadReq MSHR misses
system.l2cache.ReadReq_mshr_misses::total        50939                       # number of ReadReq MSHR misses
system.l2cache.ReadReq_mshr_miss_latency::.cpu.inst   1540549000                       # number of ReadReq MSHR miss cycles
system.l2cache.ReadReq_mshr_miss_latency::.cpu.data   1851298000                       # number of ReadReq MSHR miss cycles
system.l2cache.ReadReq_mshr_miss_latency::total   3391847000                       # number of ReadReq MSHR miss cycles
system.l2cache.ReadReq_mshr_miss_rate::.cpu.inst     0.763337                       # mshr miss rate for ReadReq accesses
system.l2cache.ReadReq_mshr_miss_rate::.cpu.data     0.749001                       # mshr miss rate for ReadReq accesses
system.l2cache.ReadReq_mshr_miss_rate::total     0.755200                       # mshr miss rate for ReadReq accesses
system.l2cache.ReadReq_avg_mshr_miss_latency::.cpu.inst 69191.511341                       # average ReadReq mshr miss latency
system.l2cache.ReadReq_avg_mshr_miss_latency::.cpu.data 64563.646509                       # average ReadReq mshr miss latency
system.l2cache.ReadReq_avg_mshr_miss_latency::total 66586.446534                       # average ReadReq mshr miss latency
system.l2cache.WritebackDirty_hits::.writebacks        11267                       # number of WritebackDirty hits
system.l2cache.WritebackDirty_hits::total        11267                       # number of WritebackDirty hits
system.l2cache.WritebackDirty_accesses::.writebacks        11267                       # number of WritebackDirty accesses(hits+misses)
system.l2cache.WritebackDirty_accesses::total        11267                       # number of WritebackDirty accesses(hits+misses)
system.l2cache.power_state.pwrStateResidencyTicks::UNDEFINED  19716852000                       # Cumulative time (in ticks) in various power states
system.l2cache.tags.tagsinuse              509.486231                       # Cycle average of tags in use
system.l2cache.tags.total_refs                  78718                       # Total number of references to valid blocks.
system.l2cache.tags.sampled_refs                57023                       # Sample count of references to valid blocks.
system.l2cache.tags.avg_refs                 1.380461                       # Average number of references to valid blocks.
system.l2cache.tags.warmup_cycle                76000                       # Cycle when the warmup percentage was hit.
system.l2cache.tags.occ_blocks::.writebacks    68.453920                       # Average occupied blocks per requestor
system.l2cache.tags.occ_blocks::.cpu.inst    75.010891                       # Average occupied blocks per requestor
system.l2cache.tags.occ_blocks::.cpu.data   366.021421                       # Average occupied blocks per requestor
system.l2cache.tags.occ_percent::.writebacks     0.133699                       # Average percentage of cache occupancy
system.l2cache.tags.occ_percent::.cpu.inst     0.146506                       # Average percentage of cache occupancy
system.l2cache.tags.occ_percent::.cpu.data     0.714886                       # Average percentage of cache occupancy
system.l2cache.tags.occ_percent::total       0.995090                       # Average percentage of cache occupancy
system.l2cache.tags.occ_task_id_blocks::1024          512                       # Occupied blocks per task id
system.l2cache.tags.age_task_id_blocks_1024::0            7                       # Occupied blocks per task id
system.l2cache.tags.age_task_id_blocks_1024::1           80                       # Occupied blocks per task id
system.l2cache.tags.age_task_id_blocks_1024::2          423                       # Occupied blocks per task id
system.l2cache.tags.age_task_id_blocks_1024::3            2                       # Occupied blocks per task id
system.l2cache.tags.occ_task_id_percent::1024            1                       # Percentage of cache occupancy per task id
system.l2cache.tags.tag_accesses               135741                       # Number of tag accesses
system.l2cache.tags.data_accesses              135741                       # Number of data accesses
system.l2cache.tags.power_state.pwrStateResidencyTicks::UNDEFINED  19716852000                       # Cumulative time (in ticks) in various power states
system.l2bar.trans_dist::ReadReq                67451                       # Transaction distribution
system.l2bar.trans_dist::ReadResp               67451                       # Transaction distribution
system.l2bar.trans_dist::WritebackDirty         11267                       # Transaction distribution
system.l2bar.pkt_count_system.dcache.mem_side::system.l2cache.cpu_side        87833                       # Packet count per connected master and slave (bytes)
system.l2bar.pkt_count_system.icache.mem_side::system.l2cache.cpu_side        58336                       # Packet count per connected master and slave (bytes)
system.l2bar.pkt_count::total                  146169                       # Packet count per connected master and slave (bytes)
system.l2bar.pkt_size_system.dcache.mem_side::system.l2cache.cpu_side      3171200                       # Cumulative packet size per connected master and slave (bytes)
system.l2bar.pkt_size_system.icache.mem_side::system.l2cache.cpu_side      1866752                       # Cumulative packet size per connected master and slave (bytes)
system.l2bar.pkt_size::total                  5037952                       # Cumulative packet size per connected master and slave (bytes)
system.l2bar.respLayer1.occupancy           145840000                       # Layer occupancy (ticks)
system.l2bar.respLayer1.utilization               0.7                       # Layer utilization (%)
system.l2bar.reqLayer0.occupancy            123786000                       # Layer occupancy (ticks)
system.l2bar.reqLayer0.utilization                0.6                       # Layer utilization (%)
system.l2bar.respLayer0.occupancy           191415000                       # Layer occupancy (ticks)
system.l2bar.respLayer0.utilization               1.0                       # Layer utilization (%)
system.l2bar.power_state.pwrStateResidencyTicks::UNDEFINED  19716852000                       # Cumulative time (in ticks) in various power states
system.cpu.dtb.walker.power_state.pwrStateResidencyTicks::UNDEFINED  19716852000                       # Cumulative time (in ticks) in various power states
system.cpu.interrupts.clk_domain.clock          16000                       # Clock period in ticks
system.cpu.itb.walker.power_state.pwrStateResidencyTicks::UNDEFINED  19716852000                       # Cumulative time (in ticks) in various power states
system.cpu.power_state.numTransitions               1                       # Number of power state transitions
system.cpu.power_state.pwrStateResidencyTicks::ON  19716852000                       # Cumulative time (in ticks) in various power states

---------- End Simulation Statistics   ----------
