
---------- Begin Simulation Statistics ----------
final_tick                                 4843156000                       # Number of ticks from beginning of simulation (restored from checkpoints and never reset)
host_inst_rate                                 212021                       # Simulator instruction rate (inst/s)
host_mem_usage                                1343536                       # Number of bytes of host memory used
host_op_rate                                   436851                       # Simulator op (including micro ops) rate (op/s)
host_seconds                                     4.72                       # Real time elapsed on the host
host_tick_rate                             1026650597                       # Simulator tick rate (ticks/s)
sim_freq                                 1000000000000                       # Frequency of simulated ticks
sim_insts                                     1000144                       # Number of instructions simulated
sim_ops                                       2060798                       # Number of ops (including micro ops) simulated
sim_seconds                                  0.004843                       # Number of seconds simulated
sim_ticks                                  4843156000                       # Number of ticks simulated
system.cpu.Branches                            239608                       # Number of branches fetched
system.cpu.committedInsts                     1000144                       # Number of instructions committed
system.cpu.committedOps                       2060798                       # Number of ops (including micro ops) committed
system.cpu.dtb.rdAccesses                      201717                       # TLB accesses on read requests
system.cpu.dtb.rdMisses                            74                       # TLB misses on read requests
system.cpu.dtb.wrAccesses                      139460                       # TLB accesses on write requests
system.cpu.dtb.wrMisses                            63                       # TLB misses on write requests
system.cpu.idle_fraction                            0                       # Percentage of idle cycles
system.cpu.itb.rdAccesses                           0                       # TLB accesses on read requests
system.cpu.itb.rdMisses                             0                       # TLB misses on read requests
system.cpu.itb.wrAccesses                     1319788                       # TLB accesses on write requests
system.cpu.itb.wrMisses                           164                       # TLB misses on write requests
system.cpu.not_idle_fraction                        1                       # Percentage of non-idle cycles
system.cpu.numCycles                          4843145                       # number of cpu cycles simulated
system.cpu.numWorkItemsCompleted                    0                       # number of work items this cpu completed
system.cpu.numWorkItemsStarted                      0                       # number of work items this cpu started
system.cpu.num_busy_cycles                    4843145                       # Number of busy cycles
system.cpu.num_cc_register_reads              1493491                       # number of times the CC registers were read
system.cpu.num_cc_register_writes              634761                       # number of times the CC registers were written
system.cpu.num_conditional_control_insts       176830                       # number of instructions that are conditional controls
system.cpu.num_fp_alu_accesses                  81369                       # Number of float alu accesses
system.cpu.num_fp_insts                         81369                       # number of float instructions
system.cpu.num_fp_register_reads               136512                       # number of times the floating registers were read
system.cpu.num_fp_register_writes               69029                       # number of times the floating registers were written
system.cpu.num_func_calls                       43018                       # number of times a function call or return occured
system.cpu.num_idle_cycles                          0                       # Number of idle cycles
system.cpu.num_int_alu_accesses               1990365                       # Number of integer alu accesses
system.cpu.num_int_insts                      1990365                       # number of integer instructions
system.cpu.num_int_register_reads             3845448                       # number of times the integer registers were read
system.cpu.num_int_register_writes            1603860                       # number of times the integer registers were written
system.cpu.num_load_insts                      201364                       # Number of load instructions
system.cpu.num_mem_refs                        340733                       # number of memory refs
system.cpu.num_store_insts                     139369                       # Number of store instructions
system.cpu.num_vec_alu_accesses                     0                       # Number of vector alu accesses
system.cpu.num_vec_insts                            0                       # number of vector instructions
system.cpu.num_vec_register_reads                   0                       # number of times the vector registers were read
system.cpu.num_vec_register_writes                  0                       # number of times the vector registers were written
system.cpu.op_class::No_OpClass                 14340      0.70%      0.70% # Class of executed instruction
system.cpu.op_class::IntAlu                   1643714     79.76%     80.46% # Class of executed instruction
system.cpu.op_class::IntMult                       20      0.00%     80.46% # Class of executed instruction
system.cpu.op_class::IntDiv                        42      0.00%     80.46% # Class of executed instruction
system.cpu.op_class::FloatAdd                    2029      0.10%     80.56% # Class of executed instruction
system.cpu.op_class::FloatCmp                       0      0.00%     80.56% # Class of executed instruction
system.cpu.op_class::FloatCvt                       0      0.00%     80.56% # Class of executed instruction
system.cpu.op_class::FloatMult                      0      0.00%     80.56% # Class of executed instruction
system.cpu.op_class::FloatMultAcc                   0      0.00%     80.56% # Class of executed instruction
system.cpu.op_class::FloatDiv                       0      0.00%     80.56% # Class of executed instruction
system.cpu.op_class::FloatMisc                      0      0.00%     80.56% # Class of executed instruction
system.cpu.op_class::FloatSqrt                      0      0.00%     80.56% # Class of executed instruction
system.cpu.op_class::SimdAdd                       20      0.00%     80.56% # Class of executed instruction
system.cpu.op_class::SimdAddAcc                     0      0.00%     80.56% # Class of executed instruction
system.cpu.op_class::SimdAlu                    20498      0.99%     81.55% # Class of executed instruction
system.cpu.op_class::SimdCmp                      466      0.02%     81.58% # Class of executed instruction
system.cpu.op_class::SimdCvt                    14386      0.70%     82.27% # Class of executed instruction
system.cpu.op_class::SimdMisc                   24550      1.19%     83.46% # Class of executed instruction
system.cpu.op_class::SimdMult                       0      0.00%     83.46% # Class of executed instruction
system.cpu.op_class::SimdMultAcc                    0      0.00%     83.46% # Class of executed instruction
system.cpu.op_class::SimdShift                      0      0.00%     83.46% # Class of executed instruction
system.cpu.op_class::SimdShiftAcc                   0      0.00%     83.46% # Class of executed instruction
system.cpu.op_class::SimdDiv                        0      0.00%     83.46% # Class of executed instruction
system.cpu.op_class::SimdSqrt                       0      0.00%     83.46% # Class of executed instruction
system.cpu.op_class::SimdFloatAdd                   0      0.00%     83.46% # Class of executed instruction
system.cpu.op_class::SimdFloatAlu                   0      0.00%     83.46% # Class of executed instruction
system.cpu.op_class::SimdFloatCmp                   0      0.00%     83.46% # Class of executed instruction
system.cpu.op_class::SimdFloatCvt                   0      0.00%     83.46% # Class of executed instruction
system.cpu.op_class::SimdFloatDiv                  25      0.00%     83.47% # Class of executed instruction
system.cpu.op_class::SimdFloatMisc                  0      0.00%     83.47% # Class of executed instruction
system.cpu.op_class::SimdFloatMult                  0      0.00%     83.47% # Class of executed instruction
system.cpu.op_class::SimdFloatMultAcc               0      0.00%     83.47% # Class of executed instruction
system.cpu.op_class::SimdFloatSqrt                  0      0.00%     83.47% # Class of executed instruction
system.cpu.op_class::SimdReduceAdd                  0      0.00%     83.47% # Class of executed instruction
system.cpu.op_class::SimdReduceAlu                  0      0.00%     83.47% # Class of executed instruction
system.cpu.op_class::SimdReduceCmp                  0      0.00%     83.47% # Class of executed instruction
system.cpu.op_class::SimdFloatReduceAdd             0      0.00%     83.47% # Class of executed instruction
system.cpu.op_class::SimdFloatReduceCmp             0      0.00%     83.47% # Class of executed instruction
system.cpu.op_class::SimdAes                        0      0.00%     83.47% # Class of executed instruction
system.cpu.op_class::SimdAesMix                     0      0.00%     83.47% # Class of executed instruction
system.cpu.op_class::SimdSha1Hash                   0      0.00%     83.47% # Class of executed instruction
system.cpu.op_class::SimdSha1Hash2                  0      0.00%     83.47% # Class of executed instruction
system.cpu.op_class::SimdSha256Hash                 0      0.00%     83.47% # Class of executed instruction
system.cpu.op_class::SimdSha256Hash2                0      0.00%     83.47% # Class of executed instruction
system.cpu.op_class::SimdShaSigma2                  0      0.00%     83.47% # Class of executed instruction
system.cpu.op_class::SimdShaSigma3                  0      0.00%     83.47% # Class of executed instruction
system.cpu.op_class::SimdPredAlu                    0      0.00%     83.47% # Class of executed instruction
system.cpu.op_class::MemRead                   190016      9.22%     92.69% # Class of executed instruction
system.cpu.op_class::MemWrite                  137376      6.67%     99.35% # Class of executed instruction
system.cpu.op_class::FloatMemRead               11348      0.55%     99.90% # Class of executed instruction
system.cpu.op_class::FloatMemWrite               1993      0.10%    100.00% # Class of executed instruction
system.cpu.op_class::IprAccess                      0      0.00%    100.00% # Class of executed instruction
system.cpu.op_class::InstPrefetch                   0      0.00%    100.00% # Class of executed instruction
system.cpu.op_class::total                    2060823                       # Class of executed instruction
system.cpu.workload.numSyscalls                    13                       # Number of system calls
system.dynamic_cache.flushTicks                     0                       # Ticks taken to flush
system.dynamic_cache.numFlushes                     0                       # Number of Flushes Taken
system.cache_small.blocked_cycles::no_mshrs            0                       # number of cycles access was blocked
system.cache_small.blocked_cycles::no_targets            0                       # number of cycles access was blocked
system.cache_small.blocked::no_mshrs                0                       # number of cycles access was blocked
system.cache_small.blocked::no_targets              0                       # number of cycles access was blocked
system.cache_small.avg_blocked_cycles::no_mshrs          nan                       # average number of cycles each access was blocked
system.cache_small.avg_blocked_cycles::no_targets          nan                       # average number of cycles each access was blocked
system.cache_small.replacements                     0                       # number of replacements
system.cache_small.power_state.pwrStateResidencyTicks::UNDEFINED   4843156000                       # Cumulative time (in ticks) in various power states
system.cache_small.tags.tagsinuse                   0                       # Cycle average of tags in use
system.cache_small.tags.total_refs                  0                       # Total number of references to valid blocks.
system.cache_small.tags.sampled_refs                0                       # Sample count of references to valid blocks.
system.cache_small.tags.avg_refs                  nan                       # Average number of references to valid blocks.
system.cache_small.tags.warmup_cycle                0                       # Cycle when the warmup percentage was hit.
system.cache_small.tags.tag_accesses                0                       # Number of tag accesses
system.cache_small.tags.data_accesses               0                       # Number of data accesses
system.cache_small.tags.power_state.pwrStateResidencyTicks::UNDEFINED   4843156000                       # Cumulative time (in ticks) in various power states
system.icache.demand_hits::.cpu.inst          1298896                       # number of demand (read+write) hits
system.icache.demand_hits::total              1298896                       # number of demand (read+write) hits
system.icache.overall_hits::.cpu.inst         1298896                       # number of overall hits
system.icache.overall_hits::total             1298896                       # number of overall hits
system.icache.demand_misses::.cpu.inst          20892                       # number of demand (read+write) misses
system.icache.demand_misses::total              20892                       # number of demand (read+write) misses
system.icache.overall_misses::.cpu.inst         20892                       # number of overall misses
system.icache.overall_misses::total             20892                       # number of overall misses
system.icache.demand_miss_latency::.cpu.inst   1207577000                       # number of demand (read+write) miss cycles
system.icache.demand_miss_latency::total   1207577000                       # number of demand (read+write) miss cycles
system.icache.overall_miss_latency::.cpu.inst   1207577000                       # number of overall miss cycles
system.icache.overall_miss_latency::total   1207577000                       # number of overall miss cycles
system.icache.demand_accesses::.cpu.inst      1319788                       # number of demand (read+write) accesses
system.icache.demand_accesses::total          1319788                       # number of demand (read+write) accesses
system.icache.overall_accesses::.cpu.inst      1319788                       # number of overall (read+write) accesses
system.icache.overall_accesses::total         1319788                       # number of overall (read+write) accesses
system.icache.demand_miss_rate::.cpu.inst     0.015830                       # miss rate for demand accesses
system.icache.demand_miss_rate::total        0.015830                       # miss rate for demand accesses
system.icache.overall_miss_rate::.cpu.inst     0.015830                       # miss rate for overall accesses
system.icache.overall_miss_rate::total       0.015830                       # miss rate for overall accesses
system.icache.demand_avg_miss_latency::.cpu.inst 57800.928585                       # average overall miss latency
system.icache.demand_avg_miss_latency::total 57800.928585                       # average overall miss latency
system.icache.overall_avg_miss_latency::.cpu.inst 57800.928585                       # average overall miss latency
system.icache.overall_avg_miss_latency::total 57800.928585                       # average overall miss latency
system.icache.blocked_cycles::no_mshrs              0                       # number of cycles access was blocked
system.icache.blocked_cycles::no_targets            0                       # number of cycles access was blocked
system.icache.blocked::no_mshrs                     0                       # number of cycles access was blocked
system.icache.blocked::no_targets                   0                       # number of cycles access was blocked
system.icache.avg_blocked_cycles::no_mshrs          nan                       # average number of cycles each access was blocked
system.icache.avg_blocked_cycles::no_targets          nan                       # average number of cycles each access was blocked
system.icache.demand_mshr_misses::.cpu.inst        20892                       # number of demand (read+write) MSHR misses
system.icache.demand_mshr_misses::total         20892                       # number of demand (read+write) MSHR misses
system.icache.overall_mshr_misses::.cpu.inst        20892                       # number of overall MSHR misses
system.icache.overall_mshr_misses::total        20892                       # number of overall MSHR misses
system.icache.demand_mshr_miss_latency::.cpu.inst   1165795000                       # number of demand (read+write) MSHR miss cycles
system.icache.demand_mshr_miss_latency::total   1165795000                       # number of demand (read+write) MSHR miss cycles
system.icache.overall_mshr_miss_latency::.cpu.inst   1165795000                       # number of overall MSHR miss cycles
system.icache.overall_mshr_miss_latency::total   1165795000                       # number of overall MSHR miss cycles
system.icache.demand_mshr_miss_rate::.cpu.inst     0.015830                       # mshr miss rate for demand accesses
system.icache.demand_mshr_miss_rate::total     0.015830                       # mshr miss rate for demand accesses
system.icache.overall_mshr_miss_rate::.cpu.inst     0.015830                       # mshr miss rate for overall accesses
system.icache.overall_mshr_miss_rate::total     0.015830                       # mshr miss rate for overall accesses
system.icache.demand_avg_mshr_miss_latency::.cpu.inst 55801.024316                       # average overall mshr miss latency
system.icache.demand_avg_mshr_miss_latency::total 55801.024316                       # average overall mshr miss latency
system.icache.overall_avg_mshr_miss_latency::.cpu.inst 55801.024316                       # average overall mshr miss latency
system.icache.overall_avg_mshr_miss_latency::total 55801.024316                       # average overall mshr miss latency
system.icache.replacements                      20635                       # number of replacements
system.icache.ReadReq_hits::.cpu.inst         1298896                       # number of ReadReq hits
system.icache.ReadReq_hits::total             1298896                       # number of ReadReq hits
system.icache.ReadReq_misses::.cpu.inst         20892                       # number of ReadReq misses
system.icache.ReadReq_misses::total             20892                       # number of ReadReq misses
system.icache.ReadReq_miss_latency::.cpu.inst   1207577000                       # number of ReadReq miss cycles
system.icache.ReadReq_miss_latency::total   1207577000                       # number of ReadReq miss cycles
system.icache.ReadReq_accesses::.cpu.inst      1319788                       # number of ReadReq accesses(hits+misses)
system.icache.ReadReq_accesses::total         1319788                       # number of ReadReq accesses(hits+misses)
system.icache.ReadReq_miss_rate::.cpu.inst     0.015830                       # miss rate for ReadReq accesses
system.icache.ReadReq_miss_rate::total       0.015830                       # miss rate for ReadReq accesses
system.icache.ReadReq_avg_miss_latency::.cpu.inst 57800.928585                       # average ReadReq miss latency
system.icache.ReadReq_avg_miss_latency::total 57800.928585                       # average ReadReq miss latency
system.icache.ReadReq_mshr_misses::.cpu.inst        20892                       # number of ReadReq MSHR misses
system.icache.ReadReq_mshr_misses::total        20892                       # number of ReadReq MSHR misses
system.icache.ReadReq_mshr_miss_latency::.cpu.inst   1165795000                       # number of ReadReq MSHR miss cycles
system.icache.ReadReq_mshr_miss_latency::total   1165795000                       # number of ReadReq MSHR miss cycles
system.icache.ReadReq_mshr_miss_rate::.cpu.inst     0.015830                       # mshr miss rate for ReadReq accesses
system.icache.ReadReq_mshr_miss_rate::total     0.015830                       # mshr miss rate for ReadReq accesses
system.icache.ReadReq_avg_mshr_miss_latency::.cpu.inst 55801.024316                       # average ReadReq mshr miss latency
system.icache.ReadReq_avg_mshr_miss_latency::total 55801.024316                       # average ReadReq mshr miss latency
system.icache.power_state.pwrStateResidencyTicks::UNDEFINED   4843156000                       # Cumulative time (in ticks) in various power states
system.icache.tags.tagsinuse               252.577267                       # Cycle average of tags in use
system.icache.tags.total_refs                 1130960                       # Total number of references to valid blocks.
system.icache.tags.sampled_refs                 20635                       # Sample count of references to valid blocks.
system.icache.tags.avg_refs                 54.807851                       # Average number of references to valid blocks.
system.icache.tags.warmup_cycle                 80000                       # Cycle when the warmup percentage was hit.
system.icache.tags.occ_blocks::.cpu.inst   252.577267                       # Average occupied blocks per requestor
system.icache.tags.occ_percent::.cpu.inst     0.986630                       # Average percentage of cache occupancy
system.icache.tags.occ_percent::total        0.986630                       # Average percentage of cache occupancy
system.icache.tags.occ_task_id_blocks::1024          256                       # Occupied blocks per task id
system.icache.tags.age_task_id_blocks_1024::0           40                       # Occupied blocks per task id
system.icache.tags.age_task_id_blocks_1024::1           27                       # Occupied blocks per task id
system.icache.tags.age_task_id_blocks_1024::2           37                       # Occupied blocks per task id
system.icache.tags.age_task_id_blocks_1024::3          152                       # Occupied blocks per task id
system.icache.tags.occ_task_id_percent::1024            1                       # Percentage of cache occupancy per task id
system.icache.tags.tag_accesses               1340679                       # Number of tag accesses
system.icache.tags.data_accesses              1340679                       # Number of data accesses
system.icache.tags.power_state.pwrStateResidencyTicks::UNDEFINED   4843156000                       # Cumulative time (in ticks) in various power states
system.membus.trans_dist::ReadReq               18655                       # Transaction distribution
system.membus.trans_dist::ReadResp              18655                       # Transaction distribution
system.membus.trans_dist::WritebackDirty         2891                       # Transaction distribution
system.membus.pkt_count_system.dynamic_cache.mem_side::system.mem_ctrl.port        40201                       # Packet count per connected master and slave (bytes)
system.membus.pkt_count_system.dynamic_cache.mem_side::total        40201                       # Packet count per connected master and slave (bytes)
system.membus.pkt_count::total                  40201                       # Packet count per connected master and slave (bytes)
system.membus.pkt_size_system.dynamic_cache.mem_side::system.mem_ctrl.port      1378944                       # Cumulative packet size per connected master and slave (bytes)
system.membus.pkt_size_system.dynamic_cache.mem_side::total      1378944                       # Cumulative packet size per connected master and slave (bytes)
system.membus.pkt_size::total                 1378944                       # Cumulative packet size per connected master and slave (bytes)
system.membus.reqLayer2.occupancy            33110000                       # Layer occupancy (ticks)
system.membus.reqLayer2.utilization               0.7                       # Layer utilization (%)
system.membus.respLayer0.occupancy          100032000                       # Layer occupancy (ticks)
system.membus.respLayer0.utilization              2.1                       # Layer utilization (%)
system.membus.power_state.pwrStateResidencyTicks::UNDEFINED   4843156000                       # Cumulative time (in ticks) in various power states
system.mem_ctrl.bytes_read::.cpu.inst          943104                       # Number of bytes read from this memory
system.mem_ctrl.bytes_read::.cpu.data          250816                       # Number of bytes read from this memory
system.mem_ctrl.bytes_read::total             1193920                       # Number of bytes read from this memory
system.mem_ctrl.bytes_inst_read::.cpu.inst       943104                       # Number of instructions bytes read from this memory
system.mem_ctrl.bytes_inst_read::total         943104                       # Number of instructions bytes read from this memory
system.mem_ctrl.bytes_written::.writebacks       185024                       # Number of bytes written to this memory
system.mem_ctrl.bytes_written::total           185024                       # Number of bytes written to this memory
system.mem_ctrl.num_reads::.cpu.inst            14736                       # Number of read requests responded to by this memory
system.mem_ctrl.num_reads::.cpu.data             3919                       # Number of read requests responded to by this memory
system.mem_ctrl.num_reads::total                18655                       # Number of read requests responded to by this memory
system.mem_ctrl.num_writes::.writebacks          2891                       # Number of write requests responded to by this memory
system.mem_ctrl.num_writes::total                2891                       # Number of write requests responded to by this memory
system.mem_ctrl.bw_read::.cpu.inst          194729222                       # Total read bandwidth from this memory (bytes/s)
system.mem_ctrl.bw_read::.cpu.data           51787719                       # Total read bandwidth from this memory (bytes/s)
system.mem_ctrl.bw_read::total              246516941                       # Total read bandwidth from this memory (bytes/s)
system.mem_ctrl.bw_inst_read::.cpu.inst     194729222                       # Instruction read bandwidth from this memory (bytes/s)
system.mem_ctrl.bw_inst_read::total         194729222                       # Instruction read bandwidth from this memory (bytes/s)
system.mem_ctrl.bw_write::.writebacks        38203188                       # Write bandwidth from this memory (bytes/s)
system.mem_ctrl.bw_write::total              38203188                       # Write bandwidth from this memory (bytes/s)
system.mem_ctrl.bw_total::.writebacks        38203188                       # Total bandwidth to/from this memory (bytes/s)
system.mem_ctrl.bw_total::.cpu.inst         194729222                       # Total bandwidth to/from this memory (bytes/s)
system.mem_ctrl.bw_total::.cpu.data          51787719                       # Total bandwidth to/from this memory (bytes/s)
system.mem_ctrl.bw_total::total             284720129                       # Total bandwidth to/from this memory (bytes/s)
system.mem_ctrl.avgPriority_.writebacks::samples      2053.00                       # Average QoS priority value for accepted requests
system.mem_ctrl.avgPriority_.cpu.inst::samples     14736.00                       # Average QoS priority value for accepted requests
system.mem_ctrl.avgPriority_.cpu.data::samples      3316.00                       # Average QoS priority value for accepted requests
system.mem_ctrl.priorityMinLatency       0.000000018750                       # per QoS priority minimum request to response latency (s)
system.mem_ctrl.priorityMaxLatency       0.000748310500                       # per QoS priority maximum request to response latency (s)
system.mem_ctrl.numReadWriteTurnArounds           118                       # Number of turnarounds from READ to WRITE
system.mem_ctrl.numWriteReadTurnArounds           118                       # Number of turnarounds from WRITE to READ
system.mem_ctrl.numStayReadState                40178                       # Number of times bus staying in READ state
system.mem_ctrl.numStayWriteState                1914                       # Number of times bus staying in WRITE state
system.mem_ctrl.readReqs                        18655                       # Number of read requests accepted
system.mem_ctrl.writeReqs                        2891                       # Number of write requests accepted
system.mem_ctrl.readBursts                      18655                       # Number of DRAM read bursts, including those serviced by the write queue
system.mem_ctrl.writeBursts                      2891                       # Number of DRAM write bursts, including those merged in the write queue
system.mem_ctrl.servicedByWrQ                     603                       # Number of DRAM read bursts serviced by the write queue
system.mem_ctrl.mergedWrBursts                    838                       # Number of DRAM write bursts merged with an existing one
system.mem_ctrl.neitherReadNorWriteReqs             0                       # Number of requests that are neither read nor write
system.mem_ctrl.perBankRdBursts::0               1319                       # Per bank write bursts
system.mem_ctrl.perBankRdBursts::1                776                       # Per bank write bursts
system.mem_ctrl.perBankRdBursts::2                382                       # Per bank write bursts
system.mem_ctrl.perBankRdBursts::3                389                       # Per bank write bursts
system.mem_ctrl.perBankRdBursts::4                367                       # Per bank write bursts
system.mem_ctrl.perBankRdBursts::5                438                       # Per bank write bursts
system.mem_ctrl.perBankRdBursts::6                328                       # Per bank write bursts
system.mem_ctrl.perBankRdBursts::7               2535                       # Per bank write bursts
system.mem_ctrl.perBankRdBursts::8                448                       # Per bank write bursts
system.mem_ctrl.perBankRdBursts::9               1068                       # Per bank write bursts
system.mem_ctrl.perBankRdBursts::10               244                       # Per bank write bursts
system.mem_ctrl.perBankRdBursts::11              3561                       # Per bank write bursts
system.mem_ctrl.perBankRdBursts::12               929                       # Per bank write bursts
system.mem_ctrl.perBankRdBursts::13              1531                       # Per bank write bursts
system.mem_ctrl.perBankRdBursts::14               358                       # Per bank write bursts
system.mem_ctrl.perBankRdBursts::15              3379                       # Per bank write bursts
system.mem_ctrl.perBankWrBursts::0                171                       # Per bank write bursts
system.mem_ctrl.perBankWrBursts::1                209                       # Per bank write bursts
system.mem_ctrl.perBankWrBursts::2                 16                       # Per bank write bursts
system.mem_ctrl.perBankWrBursts::3                  4                       # Per bank write bursts
system.mem_ctrl.perBankWrBursts::4                 36                       # Per bank write bursts
system.mem_ctrl.perBankWrBursts::5                232                       # Per bank write bursts
system.mem_ctrl.perBankWrBursts::6                 14                       # Per bank write bursts
system.mem_ctrl.perBankWrBursts::7                137                       # Per bank write bursts
system.mem_ctrl.perBankWrBursts::8                 47                       # Per bank write bursts
system.mem_ctrl.perBankWrBursts::9                178                       # Per bank write bursts
system.mem_ctrl.perBankWrBursts::10                88                       # Per bank write bursts
system.mem_ctrl.perBankWrBursts::11               155                       # Per bank write bursts
system.mem_ctrl.perBankWrBursts::12               143                       # Per bank write bursts
system.mem_ctrl.perBankWrBursts::13               201                       # Per bank write bursts
system.mem_ctrl.perBankWrBursts::14               196                       # Per bank write bursts
system.mem_ctrl.perBankWrBursts::15               205                       # Per bank write bursts
system.mem_ctrl.avgRdQLen                        1.00                       # Average read queue length when enqueuing
system.mem_ctrl.avgWrQLen                       24.32                       # Average write queue length when enqueuing
system.mem_ctrl.totQLat                     198388750                       # Total ticks spent queuing
system.mem_ctrl.totBusLat                    90260000                       # Total ticks spent in databus transfers
system.mem_ctrl.totMemAccLat                536863750                       # Total ticks spent from burst creation until serviced by the DRAM
system.mem_ctrl.avgQLat                      10989.85                       # Average queueing delay per DRAM burst
system.mem_ctrl.avgBusLat                     5000.00                       # Average bus latency per DRAM burst
system.mem_ctrl.avgMemAccLat                 29739.85                       # Average memory access latency per DRAM burst
system.mem_ctrl.numRdRetry                          0                       # Number of times read queue was full causing retry
system.mem_ctrl.numWrRetry                          0                       # Number of times write queue was full causing retry
system.mem_ctrl.readRowHits                     11252                       # Number of row buffer hits during reads
system.mem_ctrl.writeRowHits                     1642                       # Number of row buffer hits during writes
system.mem_ctrl.readRowHitRate                  62.33                       # Row buffer hit rate for reads
system.mem_ctrl.writeRowHitRate                 79.98                       # Row buffer hit rate for writes
system.mem_ctrl.readPktSize::0                      0                       # Read request sizes (log2)
system.mem_ctrl.readPktSize::1                      0                       # Read request sizes (log2)
system.mem_ctrl.readPktSize::2                      0                       # Read request sizes (log2)
system.mem_ctrl.readPktSize::3                      0                       # Read request sizes (log2)
system.mem_ctrl.readPktSize::4                      0                       # Read request sizes (log2)
system.mem_ctrl.readPktSize::5                      0                       # Read request sizes (log2)
system.mem_ctrl.readPktSize::6                  18655                       # Read request sizes (log2)
system.mem_ctrl.writePktSize::0                     0                       # Write request sizes (log2)
system.mem_ctrl.writePktSize::1                     0                       # Write request sizes (log2)
system.mem_ctrl.writePktSize::2                     0                       # Write request sizes (log2)
system.mem_ctrl.writePktSize::3                     0                       # Write request sizes (log2)
system.mem_ctrl.writePktSize::4                     0                       # Write request sizes (log2)
system.mem_ctrl.writePktSize::5                     0                       # Write request sizes (log2)
system.mem_ctrl.writePktSize::6                  2891                       # Write request sizes (log2)
system.mem_ctrl.rdQLenPdf::0                    18050                       # What read queue length does an incoming req see
system.mem_ctrl.rdQLenPdf::1                        2                       # What read queue length does an incoming req see
system.mem_ctrl.rdQLenPdf::2                        0                       # What read queue length does an incoming req see
system.mem_ctrl.rdQLenPdf::3                        0                       # What read queue length does an incoming req see
system.mem_ctrl.rdQLenPdf::4                        0                       # What read queue length does an incoming req see
system.mem_ctrl.rdQLenPdf::5                        0                       # What read queue length does an incoming req see
system.mem_ctrl.rdQLenPdf::6                        0                       # What read queue length does an incoming req see
system.mem_ctrl.rdQLenPdf::7                        0                       # What read queue length does an incoming req see
system.mem_ctrl.rdQLenPdf::8                        0                       # What read queue length does an incoming req see
system.mem_ctrl.rdQLenPdf::9                        0                       # What read queue length does an incoming req see
system.mem_ctrl.rdQLenPdf::10                       0                       # What read queue length does an incoming req see
system.mem_ctrl.rdQLenPdf::11                       0                       # What read queue length does an incoming req see
system.mem_ctrl.rdQLenPdf::12                       0                       # What read queue length does an incoming req see
system.mem_ctrl.rdQLenPdf::13                       0                       # What read queue length does an incoming req see
system.mem_ctrl.rdQLenPdf::14                       0                       # What read queue length does an incoming req see
system.mem_ctrl.rdQLenPdf::15                       0                       # What read queue length does an incoming req see
system.mem_ctrl.rdQLenPdf::16                       0                       # What read queue length does an incoming req see
system.mem_ctrl.rdQLenPdf::17                       0                       # What read queue length does an incoming req see
system.mem_ctrl.rdQLenPdf::18                       0                       # What read queue length does an incoming req see
system.mem_ctrl.rdQLenPdf::19                       0                       # What read queue length does an incoming req see
system.mem_ctrl.rdQLenPdf::20                       0                       # What read queue length does an incoming req see
system.mem_ctrl.rdQLenPdf::21                       0                       # What read queue length does an incoming req see
system.mem_ctrl.rdQLenPdf::22                       0                       # What read queue length does an incoming req see
system.mem_ctrl.rdQLenPdf::23                       0                       # What read queue length does an incoming req see
system.mem_ctrl.rdQLenPdf::24                       0                       # What read queue length does an incoming req see
system.mem_ctrl.rdQLenPdf::25                       0                       # What read queue length does an incoming req see
system.mem_ctrl.rdQLenPdf::26                       0                       # What read queue length does an incoming req see
system.mem_ctrl.rdQLenPdf::27                       0                       # What read queue length does an incoming req see
system.mem_ctrl.rdQLenPdf::28                       0                       # What read queue length does an incoming req see
system.mem_ctrl.rdQLenPdf::29                       0                       # What read queue length does an incoming req see
system.mem_ctrl.rdQLenPdf::30                       0                       # What read queue length does an incoming req see
system.mem_ctrl.rdQLenPdf::31                       0                       # What read queue length does an incoming req see
system.mem_ctrl.wrQLenPdf::0                        1                       # What write queue length does an incoming req see
system.mem_ctrl.wrQLenPdf::1                        1                       # What write queue length does an incoming req see
system.mem_ctrl.wrQLenPdf::2                        1                       # What write queue length does an incoming req see
system.mem_ctrl.wrQLenPdf::3                        1                       # What write queue length does an incoming req see
system.mem_ctrl.wrQLenPdf::4                        1                       # What write queue length does an incoming req see
system.mem_ctrl.wrQLenPdf::5                        1                       # What write queue length does an incoming req see
system.mem_ctrl.wrQLenPdf::6                        1                       # What write queue length does an incoming req see
system.mem_ctrl.wrQLenPdf::7                        1                       # What write queue length does an incoming req see
system.mem_ctrl.wrQLenPdf::8                        1                       # What write queue length does an incoming req see
system.mem_ctrl.wrQLenPdf::9                        1                       # What write queue length does an incoming req see
system.mem_ctrl.wrQLenPdf::10                       1                       # What write queue length does an incoming req see
system.mem_ctrl.wrQLenPdf::11                       1                       # What write queue length does an incoming req see
system.mem_ctrl.wrQLenPdf::12                       1                       # What write queue length does an incoming req see
system.mem_ctrl.wrQLenPdf::13                       1                       # What write queue length does an incoming req see
system.mem_ctrl.wrQLenPdf::14                       1                       # What write queue length does an incoming req see
system.mem_ctrl.wrQLenPdf::15                      72                       # What write queue length does an incoming req see
system.mem_ctrl.wrQLenPdf::16                      73                       # What write queue length does an incoming req see
system.mem_ctrl.wrQLenPdf::17                     116                       # What write queue length does an incoming req see
system.mem_ctrl.wrQLenPdf::18                     119                       # What write queue length does an incoming req see
system.mem_ctrl.wrQLenPdf::19                     119                       # What write queue length does an incoming req see
system.mem_ctrl.wrQLenPdf::20                     119                       # What write queue length does an incoming req see
system.mem_ctrl.wrQLenPdf::21                     119                       # What write queue length does an incoming req see
system.mem_ctrl.wrQLenPdf::22                     118                       # What write queue length does an incoming req see
system.mem_ctrl.wrQLenPdf::23                     118                       # What write queue length does an incoming req see
system.mem_ctrl.wrQLenPdf::24                     120                       # What write queue length does an incoming req see
system.mem_ctrl.wrQLenPdf::25                     118                       # What write queue length does an incoming req see
system.mem_ctrl.wrQLenPdf::26                     118                       # What write queue length does an incoming req see
system.mem_ctrl.wrQLenPdf::27                     119                       # What write queue length does an incoming req see
system.mem_ctrl.wrQLenPdf::28                     118                       # What write queue length does an incoming req see
system.mem_ctrl.wrQLenPdf::29                     118                       # What write queue length does an incoming req see
system.mem_ctrl.wrQLenPdf::30                     118                       # What write queue length does an incoming req see
system.mem_ctrl.wrQLenPdf::31                     118                       # What write queue length does an incoming req see
system.mem_ctrl.wrQLenPdf::32                     118                       # What write queue length does an incoming req see
system.mem_ctrl.wrQLenPdf::33                       0                       # What write queue length does an incoming req see
system.mem_ctrl.wrQLenPdf::34                       0                       # What write queue length does an incoming req see
system.mem_ctrl.wrQLenPdf::35                       0                       # What write queue length does an incoming req see
system.mem_ctrl.wrQLenPdf::36                       0                       # What write queue length does an incoming req see
system.mem_ctrl.wrQLenPdf::37                       0                       # What write queue length does an incoming req see
system.mem_ctrl.wrQLenPdf::38                       0                       # What write queue length does an incoming req see
system.mem_ctrl.wrQLenPdf::39                       0                       # What write queue length does an incoming req see
system.mem_ctrl.wrQLenPdf::40                       0                       # What write queue length does an incoming req see
system.mem_ctrl.wrQLenPdf::41                       0                       # What write queue length does an incoming req see
system.mem_ctrl.wrQLenPdf::42                       0                       # What write queue length does an incoming req see
system.mem_ctrl.wrQLenPdf::43                       0                       # What write queue length does an incoming req see
system.mem_ctrl.wrQLenPdf::44                       0                       # What write queue length does an incoming req see
system.mem_ctrl.wrQLenPdf::45                       0                       # What write queue length does an incoming req see
system.mem_ctrl.wrQLenPdf::46                       0                       # What write queue length does an incoming req see
system.mem_ctrl.wrQLenPdf::47                       0                       # What write queue length does an incoming req see
system.mem_ctrl.wrQLenPdf::48                       0                       # What write queue length does an incoming req see
system.mem_ctrl.wrQLenPdf::49                       0                       # What write queue length does an incoming req see
system.mem_ctrl.wrQLenPdf::50                       0                       # What write queue length does an incoming req see
system.mem_ctrl.wrQLenPdf::51                       0                       # What write queue length does an incoming req see
system.mem_ctrl.wrQLenPdf::52                       0                       # What write queue length does an incoming req see
system.mem_ctrl.wrQLenPdf::53                       0                       # What write queue length does an incoming req see
system.mem_ctrl.wrQLenPdf::54                       0                       # What write queue length does an incoming req see
system.mem_ctrl.wrQLenPdf::55                       0                       # What write queue length does an incoming req see
system.mem_ctrl.wrQLenPdf::56                       0                       # What write queue length does an incoming req see
system.mem_ctrl.wrQLenPdf::57                       0                       # What write queue length does an incoming req see
system.mem_ctrl.wrQLenPdf::58                       0                       # What write queue length does an incoming req see
system.mem_ctrl.wrQLenPdf::59                       0                       # What write queue length does an incoming req see
system.mem_ctrl.wrQLenPdf::60                       0                       # What write queue length does an incoming req see
system.mem_ctrl.wrQLenPdf::61                       0                       # What write queue length does an incoming req see
system.mem_ctrl.wrQLenPdf::62                       0                       # What write queue length does an incoming req see
system.mem_ctrl.wrQLenPdf::63                       0                       # What write queue length does an incoming req see
system.mem_ctrl.bytesPerActivate::samples         7190                       # Bytes accessed per row activation
system.mem_ctrl.bytesPerActivate::mean     178.772740                       # Bytes accessed per row activation
system.mem_ctrl.bytesPerActivate::gmean    130.609515                       # Bytes accessed per row activation
system.mem_ctrl.bytesPerActivate::stdev    171.607352                       # Bytes accessed per row activation
system.mem_ctrl.bytesPerActivate::0-127          3067     42.66%     42.66% # Bytes accessed per row activation
system.mem_ctrl.bytesPerActivate::128-255         2376     33.05%     75.70% # Bytes accessed per row activation
system.mem_ctrl.bytesPerActivate::256-383          916     12.74%     88.44% # Bytes accessed per row activation
system.mem_ctrl.bytesPerActivate::384-511          355      4.94%     93.38% # Bytes accessed per row activation
system.mem_ctrl.bytesPerActivate::512-639          187      2.60%     95.98% # Bytes accessed per row activation
system.mem_ctrl.bytesPerActivate::640-767          136      1.89%     97.87% # Bytes accessed per row activation
system.mem_ctrl.bytesPerActivate::768-895           59      0.82%     98.69% # Bytes accessed per row activation
system.mem_ctrl.bytesPerActivate::896-1023           39      0.54%     99.24% # Bytes accessed per row activation
system.mem_ctrl.bytesPerActivate::1024-1151           55      0.76%    100.00% # Bytes accessed per row activation
system.mem_ctrl.bytesPerActivate::total          7190                       # Bytes accessed per row activation
system.mem_ctrl.rdPerTurnAround::samples          118                       # Reads before turning the bus around for writes
system.mem_ctrl.rdPerTurnAround::mean      152.177966                       # Reads before turning the bus around for writes
system.mem_ctrl.rdPerTurnAround::gmean     109.670425                       # Reads before turning the bus around for writes
system.mem_ctrl.rdPerTurnAround::stdev     149.000237                       # Reads before turning the bus around for writes
system.mem_ctrl.rdPerTurnAround::0-31               5      4.24%      4.24% # Reads before turning the bus around for writes
system.mem_ctrl.rdPerTurnAround::32-63             28     23.73%     27.97% # Reads before turning the bus around for writes
system.mem_ctrl.rdPerTurnAround::64-95             18     15.25%     43.22% # Reads before turning the bus around for writes
system.mem_ctrl.rdPerTurnAround::96-127            14     11.86%     55.08% # Reads before turning the bus around for writes
system.mem_ctrl.rdPerTurnAround::128-159           16     13.56%     68.64% # Reads before turning the bus around for writes
system.mem_ctrl.rdPerTurnAround::160-191           12     10.17%     78.81% # Reads before turning the bus around for writes
system.mem_ctrl.rdPerTurnAround::192-223            7      5.93%     84.75% # Reads before turning the bus around for writes
system.mem_ctrl.rdPerTurnAround::224-255            2      1.69%     86.44% # Reads before turning the bus around for writes
system.mem_ctrl.rdPerTurnAround::256-287            3      2.54%     88.98% # Reads before turning the bus around for writes
system.mem_ctrl.rdPerTurnAround::320-351            1      0.85%     89.83% # Reads before turning the bus around for writes
system.mem_ctrl.rdPerTurnAround::352-383            3      2.54%     92.37% # Reads before turning the bus around for writes
system.mem_ctrl.rdPerTurnAround::384-415            3      2.54%     94.92% # Reads before turning the bus around for writes
system.mem_ctrl.rdPerTurnAround::448-479            2      1.69%     96.61% # Reads before turning the bus around for writes
system.mem_ctrl.rdPerTurnAround::576-607            1      0.85%     97.46% # Reads before turning the bus around for writes
system.mem_ctrl.rdPerTurnAround::608-639            1      0.85%     98.31% # Reads before turning the bus around for writes
system.mem_ctrl.rdPerTurnAround::736-767            1      0.85%     99.15% # Reads before turning the bus around for writes
system.mem_ctrl.rdPerTurnAround::960-991            1      0.85%    100.00% # Reads before turning the bus around for writes
system.mem_ctrl.rdPerTurnAround::total            118                       # Reads before turning the bus around for writes
system.mem_ctrl.wrPerTurnAround::samples          118                       # Writes before turning the bus around for reads
system.mem_ctrl.wrPerTurnAround::mean       17.220339                       # Writes before turning the bus around for reads
system.mem_ctrl.wrPerTurnAround::gmean      17.191759                       # Writes before turning the bus around for reads
system.mem_ctrl.wrPerTurnAround::stdev       0.988270                       # Writes before turning the bus around for reads
system.mem_ctrl.wrPerTurnAround::16                46     38.98%     38.98% # Writes before turning the bus around for reads
system.mem_ctrl.wrPerTurnAround::17                 1      0.85%     39.83% # Writes before turning the bus around for reads
system.mem_ctrl.wrPerTurnAround::18                70     59.32%     99.15% # Writes before turning the bus around for reads
system.mem_ctrl.wrPerTurnAround::19                 1      0.85%    100.00% # Writes before turning the bus around for reads
system.mem_ctrl.wrPerTurnAround::total            118                       # Writes before turning the bus around for reads
system.mem_ctrl.bytesReadDRAM                 1155328                       # Total number of bytes read from DRAM
system.mem_ctrl.bytesReadWrQ                    38592                       # Total number of bytes read from write queue
system.mem_ctrl.bytesWritten                   130048                       # Total number of bytes written to DRAM
system.mem_ctrl.bytesReadSys                  1193920                       # Total read bytes from the system interface side
system.mem_ctrl.bytesWrittenSys                185024                       # Total written bytes from the system interface side
system.mem_ctrl.avgRdBW                        238.55                       # Average DRAM read bandwidth in MiByte/s
system.mem_ctrl.avgWrBW                         26.85                       # Average achieved write bandwidth in MiByte/s
system.mem_ctrl.avgRdBWSys                     246.52                       # Average system read bandwidth in MiByte/s
system.mem_ctrl.avgWrBWSys                      38.20                       # Average system write bandwidth in MiByte/s
system.mem_ctrl.peakBW                       12800.00                       # Theoretical peak bandwidth in MiByte/s
system.mem_ctrl.busUtil                          2.07                       # Data bus utilization in percentage
system.mem_ctrl.busUtilRead                      1.86                       # Data bus utilization in percentage for reads
system.mem_ctrl.busUtilWrite                     0.21                       # Data bus utilization in percentage for writes
system.mem_ctrl.totGap                     4842321000                       # Total gap between requests
system.mem_ctrl.avgGap                      224743.39                       # Average gap between requests
system.mem_ctrl.masterReadBytes::.cpu.inst       943104                       # Per-master bytes read from memory
system.mem_ctrl.masterReadBytes::.cpu.data       212224                       # Per-master bytes read from memory
system.mem_ctrl.masterWriteBytes::.writebacks       130048                       # Per-master bytes write to memory
system.mem_ctrl.masterReadRate::.cpu.inst 194729222.019691288471                       # Per-master bytes read from memory rate (Bytes/sec)
system.mem_ctrl.masterReadRate::.cpu.data 43819360.763931617141                       # Per-master bytes read from memory rate (Bytes/sec)
system.mem_ctrl.masterWriteRate::.writebacks 26851912.265473172069                       # Per-master bytes write to memory rate (Bytes/sec)
system.mem_ctrl.masterReadAccesses::.cpu.inst        14736                       # Per-master read serviced memory accesses
system.mem_ctrl.masterReadAccesses::.cpu.data         3919                       # Per-master read serviced memory accesses
system.mem_ctrl.masterWriteAccesses::.writebacks         2891                       # Per-master write serviced memory accesses
system.mem_ctrl.masterReadTotalLat::.cpu.inst    431632000                       # Per-master read total memory access latency
system.mem_ctrl.masterReadTotalLat::.cpu.data    105231750                       # Per-master read total memory access latency
system.mem_ctrl.masterWriteTotalLat::.writebacks 112144364000                       # Per-master write total memory access latency
system.mem_ctrl.masterReadAvgLat::.cpu.inst     29290.99                       # Per-master read average memory access latency
system.mem_ctrl.masterReadAvgLat::.cpu.data     26851.68                       # Per-master read average memory access latency
system.mem_ctrl.masterWriteAvgLat::.writebacks  38790855.76                       # Per-master write average memory access latency
system.mem_ctrl.pageHitRate                     64.13                       # Row buffer hit rate, read and write combined
system.mem_ctrl.rank1.actEnergy              29373960                       # Energy for activate commands per rank (pJ)
system.mem_ctrl.rank1.preEnergy              15612630                       # Energy for precharge commands per rank (pJ)
system.mem_ctrl.rank1.readEnergy             82238520                       # Energy for read commands per rank (pJ)
system.mem_ctrl.rank1.writeEnergy             6331860                       # Energy for write commands per rank (pJ)
system.mem_ctrl.rank1.refreshEnergy      382306080.000000                       # Energy for refresh commands per rank (pJ)
system.mem_ctrl.rank1.actBackEnergy        2028018390                       # Energy for active background per rank (pJ)
system.mem_ctrl.rank1.preBackEnergy         152025120                       # Energy for precharge background per rank (pJ)
system.mem_ctrl.rank1.actPowerDownEnergy            0                       # Energy for active power-down per rank (pJ)
system.mem_ctrl.rank1.prePowerDownEnergy            0                       # Energy for precharge power-down per rank (pJ)
system.mem_ctrl.rank1.selfRefreshEnergy             0                       # Energy for self refresh per rank (pJ)
system.mem_ctrl.rank1.totalEnergy          2695906560                       # Total energy per rank (pJ)
system.mem_ctrl.rank1.averagePower         556.642520                       # Core power per rank (mW)
system.mem_ctrl.rank1.totalIdleTime                 0                       # Total Idle time Per DRAM Rank
system.mem_ctrl.rank1.memoryStateTime::IDLE    377148000                       # Time in different power states
system.mem_ctrl.rank1.memoryStateTime::REF    161554750                       # Time in different power states
system.mem_ctrl.rank1.memoryStateTime::SREF            0                       # Time in different power states
system.mem_ctrl.rank1.memoryStateTime::PRE_PDN            0                       # Time in different power states
system.mem_ctrl.rank1.memoryStateTime::ACT   4304453250                       # Time in different power states
system.mem_ctrl.rank1.memoryStateTime::ACT_PDN            0                       # Time in different power states
system.mem_ctrl.rank0.actEnergy              21962640                       # Energy for activate commands per rank (pJ)
system.mem_ctrl.rank0.preEnergy              11673420                       # Energy for precharge commands per rank (pJ)
system.mem_ctrl.rank0.readEnergy             46652760                       # Energy for read commands per rank (pJ)
system.mem_ctrl.rank0.writeEnergy             4275180                       # Energy for write commands per rank (pJ)
system.mem_ctrl.rank0.refreshEnergy      382306080.000000                       # Energy for refresh commands per rank (pJ)
system.mem_ctrl.rank0.actBackEnergy        1909160850                       # Energy for active background per rank (pJ)
system.mem_ctrl.rank0.preBackEnergy         252115680                       # Energy for precharge background per rank (pJ)
system.mem_ctrl.rank0.actPowerDownEnergy            0                       # Energy for active power-down per rank (pJ)
system.mem_ctrl.rank0.prePowerDownEnergy            0                       # Energy for precharge power-down per rank (pJ)
system.mem_ctrl.rank0.selfRefreshEnergy             0                       # Energy for self refresh per rank (pJ)
system.mem_ctrl.rank0.totalEnergy          2628146610                       # Total energy per rank (pJ)
system.mem_ctrl.rank0.averagePower         542.651653                       # Core power per rank (mW)
system.mem_ctrl.rank0.totalIdleTime                 0                       # Total Idle time Per DRAM Rank
system.mem_ctrl.rank0.memoryStateTime::IDLE    637407000                       # Time in different power states
system.mem_ctrl.rank0.memoryStateTime::REF    161554750                       # Time in different power states
system.mem_ctrl.rank0.memoryStateTime::SREF            0                       # Time in different power states
system.mem_ctrl.rank0.memoryStateTime::PRE_PDN            0                       # Time in different power states
system.mem_ctrl.rank0.memoryStateTime::ACT   4044194250                       # Time in different power states
system.mem_ctrl.rank0.memoryStateTime::ACT_PDN            0                       # Time in different power states
system.mem_ctrl.power_state.pwrStateResidencyTicks::UNDEFINED   4843156000                       # Cumulative time (in ticks) in various power states
system.cache_medium.blocked_cycles::no_mshrs            0                       # number of cycles access was blocked
system.cache_medium.blocked_cycles::no_targets            0                       # number of cycles access was blocked
system.cache_medium.blocked::no_mshrs               0                       # number of cycles access was blocked
system.cache_medium.blocked::no_targets             0                       # number of cycles access was blocked
system.cache_medium.avg_blocked_cycles::no_mshrs          nan                       # average number of cycles each access was blocked
system.cache_medium.avg_blocked_cycles::no_targets          nan                       # average number of cycles each access was blocked
system.cache_medium.replacements                    0                       # number of replacements
system.cache_medium.power_state.pwrStateResidencyTicks::UNDEFINED   4843156000                       # Cumulative time (in ticks) in various power states
system.cache_medium.tags.tagsinuse                  0                       # Cycle average of tags in use
system.cache_medium.tags.total_refs                 0                       # Total number of references to valid blocks.
system.cache_medium.tags.sampled_refs               0                       # Sample count of references to valid blocks.
system.cache_medium.tags.avg_refs                 nan                       # Average number of references to valid blocks.
system.cache_medium.tags.warmup_cycle               0                       # Cycle when the warmup percentage was hit.
system.cache_medium.tags.tag_accesses               0                       # Number of tag accesses
system.cache_medium.tags.data_accesses              0                       # Number of data accesses
system.cache_medium.tags.power_state.pwrStateResidencyTicks::UNDEFINED   4843156000                       # Cumulative time (in ticks) in various power states
system.clk_domain.clock                          1000                       # Clock period in ticks
system.clk_domain.voltage_domain.voltage            1                       # Voltage in Volts
system.dcache.demand_hits::.cpu.data           334134                       # number of demand (read+write) hits
system.dcache.demand_hits::total               334134                       # number of demand (read+write) hits
system.dcache.overall_hits::.cpu.data          334134                       # number of overall hits
system.dcache.overall_hits::total              334134                       # number of overall hits
system.dcache.demand_misses::.cpu.data           7018                       # number of demand (read+write) misses
system.dcache.demand_misses::total               7018                       # number of demand (read+write) misses
system.dcache.overall_misses::.cpu.data          7018                       # number of overall misses
system.dcache.overall_misses::total              7018                       # number of overall misses
system.dcache.demand_miss_latency::.cpu.data    327634000                       # number of demand (read+write) miss cycles
system.dcache.demand_miss_latency::total    327634000                       # number of demand (read+write) miss cycles
system.dcache.overall_miss_latency::.cpu.data    327634000                       # number of overall miss cycles
system.dcache.overall_miss_latency::total    327634000                       # number of overall miss cycles
system.dcache.demand_accesses::.cpu.data       341152                       # number of demand (read+write) accesses
system.dcache.demand_accesses::total           341152                       # number of demand (read+write) accesses
system.dcache.overall_accesses::.cpu.data       341152                       # number of overall (read+write) accesses
system.dcache.overall_accesses::total          341152                       # number of overall (read+write) accesses
system.dcache.demand_miss_rate::.cpu.data     0.020571                       # miss rate for demand accesses
system.dcache.demand_miss_rate::total        0.020571                       # miss rate for demand accesses
system.dcache.overall_miss_rate::.cpu.data     0.020571                       # miss rate for overall accesses
system.dcache.overall_miss_rate::total       0.020571                       # miss rate for overall accesses
system.dcache.demand_avg_miss_latency::.cpu.data 46684.810487                       # average overall miss latency
system.dcache.demand_avg_miss_latency::total 46684.810487                       # average overall miss latency
system.dcache.overall_avg_miss_latency::.cpu.data 46684.810487                       # average overall miss latency
system.dcache.overall_avg_miss_latency::total 46684.810487                       # average overall miss latency
system.dcache.blocked_cycles::no_mshrs              0                       # number of cycles access was blocked
system.dcache.blocked_cycles::no_targets            0                       # number of cycles access was blocked
system.dcache.blocked::no_mshrs                     0                       # number of cycles access was blocked
system.dcache.blocked::no_targets                   0                       # number of cycles access was blocked
system.dcache.avg_blocked_cycles::no_mshrs          nan                       # average number of cycles each access was blocked
system.dcache.avg_blocked_cycles::no_targets          nan                       # average number of cycles each access was blocked
system.dcache.writebacks::.writebacks            3798                       # number of writebacks
system.dcache.writebacks::total                  3798                       # number of writebacks
system.dcache.demand_mshr_misses::.cpu.data         7018                       # number of demand (read+write) MSHR misses
system.dcache.demand_mshr_misses::total          7018                       # number of demand (read+write) MSHR misses
system.dcache.overall_mshr_misses::.cpu.data         7018                       # number of overall MSHR misses
system.dcache.overall_mshr_misses::total         7018                       # number of overall MSHR misses
system.dcache.demand_mshr_miss_latency::.cpu.data    313598000                       # number of demand (read+write) MSHR miss cycles
system.dcache.demand_mshr_miss_latency::total    313598000                       # number of demand (read+write) MSHR miss cycles
system.dcache.overall_mshr_miss_latency::.cpu.data    313598000                       # number of overall MSHR miss cycles
system.dcache.overall_mshr_miss_latency::total    313598000                       # number of overall MSHR miss cycles
system.dcache.demand_mshr_miss_rate::.cpu.data     0.020571                       # mshr miss rate for demand accesses
system.dcache.demand_mshr_miss_rate::total     0.020571                       # mshr miss rate for demand accesses
system.dcache.overall_mshr_miss_rate::.cpu.data     0.020571                       # mshr miss rate for overall accesses
system.dcache.overall_mshr_miss_rate::total     0.020571                       # mshr miss rate for overall accesses
system.dcache.demand_avg_mshr_miss_latency::.cpu.data 44684.810487                       # average overall mshr miss latency
system.dcache.demand_avg_mshr_miss_latency::total 44684.810487                       # average overall mshr miss latency
system.dcache.overall_avg_mshr_miss_latency::.cpu.data 44684.810487                       # average overall mshr miss latency
system.dcache.overall_avg_mshr_miss_latency::total 44684.810487                       # average overall mshr miss latency
system.dcache.replacements                       6762                       # number of replacements
system.dcache.ReadReq_hits::.cpu.data          197436                       # number of ReadReq hits
system.dcache.ReadReq_hits::total              197436                       # number of ReadReq hits
system.dcache.ReadReq_misses::.cpu.data          4281                       # number of ReadReq misses
system.dcache.ReadReq_misses::total              4281                       # number of ReadReq misses
system.dcache.ReadReq_miss_latency::.cpu.data    175517000                       # number of ReadReq miss cycles
system.dcache.ReadReq_miss_latency::total    175517000                       # number of ReadReq miss cycles
system.dcache.ReadReq_accesses::.cpu.data       201717                       # number of ReadReq accesses(hits+misses)
system.dcache.ReadReq_accesses::total          201717                       # number of ReadReq accesses(hits+misses)
system.dcache.ReadReq_miss_rate::.cpu.data     0.021223                       # miss rate for ReadReq accesses
system.dcache.ReadReq_miss_rate::total       0.021223                       # miss rate for ReadReq accesses
system.dcache.ReadReq_avg_miss_latency::.cpu.data 40999.065639                       # average ReadReq miss latency
system.dcache.ReadReq_avg_miss_latency::total 40999.065639                       # average ReadReq miss latency
system.dcache.ReadReq_mshr_misses::.cpu.data         4281                       # number of ReadReq MSHR misses
system.dcache.ReadReq_mshr_misses::total         4281                       # number of ReadReq MSHR misses
system.dcache.ReadReq_mshr_miss_latency::.cpu.data    166955000                       # number of ReadReq MSHR miss cycles
system.dcache.ReadReq_mshr_miss_latency::total    166955000                       # number of ReadReq MSHR miss cycles
system.dcache.ReadReq_mshr_miss_rate::.cpu.data     0.021223                       # mshr miss rate for ReadReq accesses
system.dcache.ReadReq_mshr_miss_rate::total     0.021223                       # mshr miss rate for ReadReq accesses
system.dcache.ReadReq_avg_mshr_miss_latency::.cpu.data 38999.065639                       # average ReadReq mshr miss latency
system.dcache.ReadReq_avg_mshr_miss_latency::total 38999.065639                       # average ReadReq mshr miss latency
system.dcache.WriteReq_hits::.cpu.data         136698                       # number of WriteReq hits
system.dcache.WriteReq_hits::total             136698                       # number of WriteReq hits
system.dcache.WriteReq_misses::.cpu.data         2737                       # number of WriteReq misses
system.dcache.WriteReq_misses::total             2737                       # number of WriteReq misses
system.dcache.WriteReq_miss_latency::.cpu.data    152117000                       # number of WriteReq miss cycles
system.dcache.WriteReq_miss_latency::total    152117000                       # number of WriteReq miss cycles
system.dcache.WriteReq_accesses::.cpu.data       139435                       # number of WriteReq accesses(hits+misses)
system.dcache.WriteReq_accesses::total         139435                       # number of WriteReq accesses(hits+misses)
system.dcache.WriteReq_miss_rate::.cpu.data     0.019629                       # miss rate for WriteReq accesses
system.dcache.WriteReq_miss_rate::total      0.019629                       # miss rate for WriteReq accesses
system.dcache.WriteReq_avg_miss_latency::.cpu.data 55578.005115                       # average WriteReq miss latency
system.dcache.WriteReq_avg_miss_latency::total 55578.005115                       # average WriteReq miss latency
system.dcache.WriteReq_mshr_misses::.cpu.data         2737                       # number of WriteReq MSHR misses
system.dcache.WriteReq_mshr_misses::total         2737                       # number of WriteReq MSHR misses
system.dcache.WriteReq_mshr_miss_latency::.cpu.data    146643000                       # number of WriteReq MSHR miss cycles
system.dcache.WriteReq_mshr_miss_latency::total    146643000                       # number of WriteReq MSHR miss cycles
system.dcache.WriteReq_mshr_miss_rate::.cpu.data     0.019629                       # mshr miss rate for WriteReq accesses
system.dcache.WriteReq_mshr_miss_rate::total     0.019629                       # mshr miss rate for WriteReq accesses
system.dcache.WriteReq_avg_mshr_miss_latency::.cpu.data 53578.005115                       # average WriteReq mshr miss latency
system.dcache.WriteReq_avg_mshr_miss_latency::total 53578.005115                       # average WriteReq mshr miss latency
system.dcache.power_state.pwrStateResidencyTicks::UNDEFINED   4843156000                       # Cumulative time (in ticks) in various power states
system.dcache.tags.tagsinuse               251.266755                       # Cycle average of tags in use
system.dcache.tags.total_refs                  282597                       # Total number of references to valid blocks.
system.dcache.tags.sampled_refs                  6762                       # Sample count of references to valid blocks.
system.dcache.tags.avg_refs                 41.791925                       # Average number of references to valid blocks.
system.dcache.tags.warmup_cycle                167000                       # Cycle when the warmup percentage was hit.
system.dcache.tags.occ_blocks::.cpu.data   251.266755                       # Average occupied blocks per requestor
system.dcache.tags.occ_percent::.cpu.data     0.981511                       # Average percentage of cache occupancy
system.dcache.tags.occ_percent::total        0.981511                       # Average percentage of cache occupancy
system.dcache.tags.occ_task_id_blocks::1024          256                       # Occupied blocks per task id
system.dcache.tags.age_task_id_blocks_1024::0           12                       # Occupied blocks per task id
system.dcache.tags.age_task_id_blocks_1024::1           28                       # Occupied blocks per task id
system.dcache.tags.age_task_id_blocks_1024::2          120                       # Occupied blocks per task id
system.dcache.tags.age_task_id_blocks_1024::3           96                       # Occupied blocks per task id
system.dcache.tags.occ_task_id_percent::1024            1                       # Percentage of cache occupancy per task id
system.dcache.tags.tag_accesses                348170                       # Number of tag accesses
system.dcache.tags.data_accesses               348170                       # Number of data accesses
system.dcache.tags.power_state.pwrStateResidencyTicks::UNDEFINED   4843156000                       # Cumulative time (in ticks) in various power states
system.cache_large.blocked_cycles::no_mshrs            0                       # number of cycles access was blocked
system.cache_large.blocked_cycles::no_targets            0                       # number of cycles access was blocked
system.cache_large.blocked::no_mshrs                0                       # number of cycles access was blocked
system.cache_large.blocked::no_targets              0                       # number of cycles access was blocked
system.cache_large.avg_blocked_cycles::no_mshrs          nan                       # average number of cycles each access was blocked
system.cache_large.avg_blocked_cycles::no_targets          nan                       # average number of cycles each access was blocked
system.cache_large.replacements                     0                       # number of replacements
system.cache_large.power_state.pwrStateResidencyTicks::UNDEFINED   4843156000                       # Cumulative time (in ticks) in various power states
system.cache_large.tags.tagsinuse                   0                       # Cycle average of tags in use
system.cache_large.tags.total_refs                  0                       # Total number of references to valid blocks.
system.cache_large.tags.sampled_refs                0                       # Sample count of references to valid blocks.
system.cache_large.tags.avg_refs                  nan                       # Average number of references to valid blocks.
system.cache_large.tags.warmup_cycle                0                       # Cycle when the warmup percentage was hit.
system.cache_large.tags.tag_accesses                0                       # Number of tag accesses
system.cache_large.tags.data_accesses               0                       # Number of data accesses
system.cache_large.tags.power_state.pwrStateResidencyTicks::UNDEFINED   4843156000                       # Cumulative time (in ticks) in various power states
system.l2cache.demand_hits::.cpu.inst            6155                       # number of demand (read+write) hits
system.l2cache.demand_hits::.cpu.data            3099                       # number of demand (read+write) hits
system.l2cache.demand_hits::total                9254                       # number of demand (read+write) hits
system.l2cache.overall_hits::.cpu.inst           6155                       # number of overall hits
system.l2cache.overall_hits::.cpu.data           3099                       # number of overall hits
system.l2cache.overall_hits::total               9254                       # number of overall hits
system.l2cache.demand_misses::.cpu.inst         14737                       # number of demand (read+write) misses
system.l2cache.demand_misses::.cpu.data          3919                       # number of demand (read+write) misses
system.l2cache.demand_misses::total             18656                       # number of demand (read+write) misses
system.l2cache.overall_misses::.cpu.inst        14737                       # number of overall misses
[...]
system.dcache.tags.age_task_id_blocks_1024::1          100                       # Occupied blocks per task id
system.dcache.tags.age_task_id_blocks_1024::2          146                       # Occupied blocks per task id
system.dcache.tags.occ_task_id_percent::1024            1                       # Percentage of cache occupancy per task id
system.dcache.tags.tag_accesses               1470053                       # Number of tag accesses
system.dcache.tags.data_accesses              1470053                       # Number of data accesses
system.dcache.tags.power_state.pwrStateResidencyTicks::UNDEFINED  19901829000                       # Cumulative time (in ticks) in various power states
system.cache_large.blocked_cycles::no_mshrs            0                       # number of cycles access was blocked
system.cache_large.blocked_cycles::no_targets            0                       # number of cycles access was blocked
system.cache_large.blocked::no_mshrs                0                       # number of cycles access was blocked
system.cache_large.blocked::no_targets              0                       # number of cycles access was blocked
system.cache_large.avg_blocked_cycles::no_mshrs          nan                       # average number of cycles each access was blocked
system.cache_large.avg_blocked_cycles::no_targets          nan                       # average number of cycles each access was blocked
system.cache_large.replacements                     0                       # number of replacements
system.cache_large.power_state.pwrStateResidencyTicks::UNDEFINED  19901829000                       # Cumulative time (in ticks) in various power states
system.cache_large.tags.tagsinuse                   0                       # Cycle average of tags in use
system.cache_large.tags.total_refs                  0                       # Total number of references to valid blocks.
system.cache_large.tags.sampled_refs                0                       # Sample count of references to valid blocks.
system.cache_large.tags.avg_refs                  nan                       # Average number of references to valid blocks.
system.cache_large.tags.warmup_cycle                0                       # Cycle when the warmup percentage was hit.
system.cache_large.tags.tag_accesses                0                       # Number of tag accesses
system.cache_large.tags.data_accesses               0                       # Number of data accesses
system.cache_large.tags.power_state.pwrStateResidencyTicks::UNDEFINED  19901829000                       # Cumulative time (in ticks) in various power states
system.l2cache.demand_hits::.cpu.inst           11650                       # number of demand (read+write) hits
system.l2cache.demand_hits::.cpu.data            9385                       # number of demand (read+write) hits
system.l2cache.demand_hits::total               21035                       # number of demand (read+write) hits
system.l2cache.overall_hits::.cpu.inst          11650                       # number of overall hits
system.l2cache.overall_hits::.cpu.data           9385                       # number of overall hits
system.l2cache.overall_hits::total              21035                       # number of overall hits
system.l2cache.demand_misses::.cpu.inst         26299                       # number of demand (read+write) misses
system.l2cache.demand_misses::.cpu.data         28639                       # number of demand (read+write) misses
system.l2cache.demand_misses::total             54938                       # number of demand (read+write) misses
system.l2cache.overall_misses::.cpu.inst        26299                       # number of overall misses
system.l2cache.overall_misses::.cpu.data        28639                       # number of overall misses
system.l2cache.overall_misses::total            54938                       # number of overall misses
system.l2cache.demand_miss_latency::.cpu.inst   1837119000                       # number of demand (read+write) miss cycles
system.l2cache.demand_miss_latency::.cpu.data   1746888000                       # number of demand (read+write) miss cycles
system.l2cache.demand_miss_latency::total   3584007000                       # number of demand (read+write) miss cycles
system.l2cache.overall_miss_latency::.cpu.inst   1837119000                       # number of overall miss cycles
system.l2cache.overall_miss_latency::.cpu.data   1746888000                       # number of overall miss cycles
system.l2cache.overall_miss_latency::total   3584007000                       # number of overall miss cycles
system.l2cache.demand_accesses::.cpu.inst        37949                       # number of demand (read+write) accesses
system.l2cache.demand_accesses::.cpu.data        38024                       # number of demand (read+write) accesses
system.l2cache.demand_accesses::total           75973                       # number of demand (read+write) accesses
system.l2cache.overall_accesses::.cpu.inst        37949                       # number of overall (read+write) accesses
system.l2cache.overall_accesses::.cpu.data        38024                       # number of overall (read+write) accesses
system.l2cache.overall_accesses::total          75973                       # number of overall (read+write) accesses
system.l2cache.demand_miss_rate::.cpu.inst     0.693009                       # miss rate for demand accesses
system.l2cache.demand_miss_rate::.cpu.data     0.753182                       # miss rate for demand accesses
system.l2cache.demand_miss_rate::total       0.723125                       # miss rate for demand accesses
system.l2cache.overall_miss_rate::.cpu.inst     0.693009                       # miss rate for overall accesses
system.l2cache.overall_miss_rate::.cpu.data     0.753182                       # miss rate for overall accesses
system.l2cache.overall_miss_rate::total      0.723125                       # miss rate for overall accesses
system.l2cache.demand_avg_miss_latency::.cpu.inst 69855.089547                       # average overall miss latency
system.l2cache.demand_avg_miss_latency::.cpu.data 60996.822515                       # average overall miss latency
system.l2cache.demand_avg_miss_latency::total 65237.303870                       # average overall miss latency
system.l2cache.overall_avg_miss_latency::.cpu.inst 69855.089547                       # average overall miss latency
system.l2cache.overall_avg_miss_latency::.cpu.data 60996.822515                       # average overall miss latency
system.l2cache.overall_avg_miss_latency::total 65237.303870                       # average overall miss latency
system.l2cache.blocked_cycles::no_mshrs             0                       # number of cycles access was blocked
system.l2cache.blocked_cycles::no_targets            0                       # number of cycles access was blocked
system.l2cache.blocked::no_mshrs                    0                       # number of cycles access was blocked
system.l2cache.blocked::no_targets                  0                       # number of cycles access was blocked
system.l2cache.avg_blocked_cycles::no_mshrs          nan                       # average number of cycles each access was blocked
system.l2cache.avg_blocked_cycles::no_targets          nan                       # average number of cycles each access was blocked
system.l2cache.writebacks::.writebacks           8436                       # number of writebacks
system.l2cache.writebacks::total                 8436                       # number of writebacks
system.l2cache.demand_mshr_misses::.cpu.inst        26299                       # number of demand (read+write) MSHR misses
system.l2cache.demand_mshr_misses::.cpu.data        28639                       # number of demand (read+write) MSHR misses
system.l2cache.demand_mshr_misses::total        54938                       # number of demand (read+write) MSHR misses
system.l2cache.overall_mshr_misses::.cpu.inst        26299                       # number of overall MSHR misses
system.l2cache.overall_mshr_misses::.cpu.data        28639                       # number of overall MSHR misses
system.l2cache.overall_mshr_misses::total        54938                       # number of overall MSHR misses
system.l2cache.demand_mshr_miss_latency::.cpu.inst   1784521000                       # number of demand (read+write) MSHR miss cycles
system.l2cache.demand_mshr_miss_latency::.cpu.data   1689610000                       # number of demand (read+write) MSHR miss cycles
system.l2cache.demand_mshr_miss_latency::total   3474131000                       # number of demand (read+write) MSHR miss cycles
system.l2cache.overall_mshr_miss_latency::.cpu.inst   1784521000                       # number of overall MSHR miss cycles
system.l2cache.overall_mshr_miss_latency::.cpu.data   1689610000                       # number of overall MSHR miss cycles
system.l2cache.overall_mshr_miss_latency::total   3474131000                       # number of overall MSHR miss cycles
system.l2cache.demand_mshr_miss_rate::.cpu.inst     0.693009                       # mshr miss rate for demand accesses
system.l2cache.demand_mshr_miss_rate::.cpu.data     0.753182                       # mshr miss rate for demand accesses
system.l2cache.demand_mshr_miss_rate::total     0.723125                       # mshr miss rate for demand accesses
system.l2cache.overall_mshr_miss_rate::.cpu.inst     0.693009                       # mshr miss rate for overall accesses
system.l2cache.overall_mshr_miss_rate::.cpu.data     0.753182                       # mshr miss rate for overall accesses
system.l2cache.overall_mshr_miss_rate::total     0.723125                       # mshr miss rate for overall accesses
system.l2cache.demand_avg_mshr_miss_latency::.cpu.inst 67855.089547                       # average overall mshr miss latency
system.l2cache.demand_avg_mshr_miss_latency::.cpu.data 58996.822515                       # average overall mshr miss latency
system.l2cache.demand_avg_mshr_miss_latency::total 63237.303870                       # average overall mshr miss latency
system.l2cache.overall_avg_mshr_miss_latency::.cpu.inst 67855.089547                       # average overall mshr miss latency
system.l2cache.overall_avg_mshr_miss_latency::.cpu.data 58996.822515                       # average overall mshr miss latency
system.l2cache.overall_avg_mshr_miss_latency::total 63237.303870                       # average overall mshr miss latency
system.l2cache.replacements                     60633                       # number of replacements
system.l2cache.ReadReq_hits::.cpu.inst          11650                       # number of ReadReq hits
system.l2cache.ReadReq_hits::.cpu.data           9385                       # number of ReadReq hits
system.l2cache.ReadReq_hits::total              21035                       # number of ReadReq hits
system.l2cache.ReadReq_misses::.cpu.inst        26299                       # number of ReadReq misses
system.l2cache.ReadReq_misses::.cpu.data        28639                       # number of ReadReq misses
system.l2cache.ReadReq_misses::total            54938                       # number of ReadReq misses
system.l2cache.ReadReq_miss_latency::.cpu.inst   1837119000                       # number of ReadReq miss cycles
system.l2cache.ReadReq_miss_latency::.cpu.data   1746888000                       # number of ReadReq miss cycles
system.l2cache.ReadReq_miss_latency::total   3584007000                       # number of ReadReq miss cycles
system.l2cache.ReadReq_accesses::.cpu.inst        37949                       # number of ReadReq accesses(hits+misses)
system.l2cache.ReadReq_accesses::.cpu.data        38024                       # number of ReadReq accesses(hits+misses)
system.l2cache.ReadReq_accesses::total          75973                       # number of ReadReq accesses(hits+misses)
system.l2cache.ReadReq_miss_rate::.cpu.inst     0.693009                       # miss rate for ReadReq accesses
system.l2cache.ReadReq_miss_rate::.cpu.data     0.753182                       # miss rate for ReadReq accesses
system.l2cache.ReadReq_miss_rate::total      0.723125                       # miss rate for ReadReq accesses
system.l2cache.ReadReq_avg_miss_latency::.cpu.inst 69855.089547                       # average ReadReq miss latency
system.l2cache.ReadReq_avg_miss_latency::.cpu.data 60996.822515                       # average ReadReq miss latency
system.l2cache.ReadReq_avg_miss_latency::total 65237.303870                       # average ReadReq miss latency
system.l2cache.ReadReq_mshr_misses::.cpu.inst        26299                       # number of ReadReq MSHR misses
system.l2cache.ReadReq_mshr_misses::.cpu.data        28639                       # number of ReadReq MSHR misses
system.l2cache.ReadReq_mshr_misses::total        54938                       # number of ReadReq MSHR misses
system.l2cache.ReadReq_mshr_miss_latency::.cpu.inst   1784521000                       # number of ReadReq MSHR miss cycles
system.l2cache.ReadReq_mshr_miss_latency::.cpu.data   1689610000                       # number of ReadReq MSHR miss cycles
system.l2cache.ReadReq_mshr_miss_latency::total   3474131000                       # number of ReadReq MSHR miss cycles
system.l2cache.ReadReq_mshr_miss_rate::.cpu.inst     0.693009                       # mshr miss rate for ReadReq accesses
system.l2cache.ReadReq_mshr_miss_rate::.cpu.data     0.753182                       # mshr miss rate for ReadReq accesses
system.l2cache.ReadReq_mshr_miss_rate::total     0.723125                       # mshr miss rate for ReadReq accesses
system.l2cache.ReadReq_avg_mshr_miss_latency::.cpu.inst 67855.089547                       # average ReadReq mshr miss latency
system.l2cache.ReadReq_avg_mshr_miss_latency::.cpu.data 58996.822515                       # average ReadReq mshr miss latency
system.l2cache.ReadReq_avg_mshr_miss_latency::total 63237.303870                       # average ReadReq mshr miss latency
system.l2cache.WritebackDirty_hits::.writebacks        10988                       # number of WritebackDirty hits
system.l2cache.WritebackDirty_hits::total        10988                       # number of WritebackDirty hits
system.l2cache.WritebackDirty_accesses::.writebacks        10988                       # number of WritebackDirty accesses(hits+misses)
system.l2cache.WritebackDirty_accesses::total        10988                       # number of WritebackDirty accesses(hits+misses)
system.l2cache.power_state.pwrStateResidencyTicks::UNDEFINED  19901829000                       # Cumulative time (in ticks) in various power states
system.l2cache.tags.tagsinuse              509.984232                       # Cycle average of tags in use
system.l2cache.tags.total_refs                  86961                       # Total number of references to valid blocks.
system.l2cache.tags.sampled_refs                61145                       # Sample count of references to valid blocks.
system.l2cache.tags.avg_refs                 1.422210                       # Average number of references to valid blocks.
system.l2cache.tags.warmup_cycle                76000                       # Cycle when the warmup percentage was hit.
system.l2cache.tags.occ_blocks::.writebacks    73.648291                       # Average occupied blocks per requestor
system.l2cache.tags.occ_blocks::.cpu.inst    75.347935                       # Average occupied blocks per requestor
system.l2cache.tags.occ_blocks::.cpu.data   360.988006                       # Average occupied blocks per requestor
system.l2cache.tags.occ_percent::.writebacks     0.143844                       # Average percentage of cache occupancy
system.l2cache.tags.occ_percent::.cpu.inst     0.147164                       # Average percentage of cache occupancy
system.l2cache.tags.occ_percent::.cpu.data     0.705055                       # Average percentage of cache occupancy
system.l2cache.tags.occ_percent::total       0.996063                       # Average percentage of cache occupancy
system.l2cache.tags.occ_task_id_blocks::1024          512                       # Occupied blocks per task id
system.l2cache.tags.age_task_id_blocks_1024::0           10                       # Occupied blocks per task id
system.l2cache.tags.age_task_id_blocks_1024::1          100                       # Occupied blocks per task id
system.l2cache.tags.age_task_id_blocks_1024::2          400                       # Occupied blocks per task id
system.l2cache.tags.age_task_id_blocks_1024::3            2                       # Occupied blocks per task id
system.l2cache.tags.occ_task_id_percent::1024            1                       # Percentage of cache occupancy per task id
system.l2cache.tags.tag_accesses               148106                       # Number of tag accesses
system.l2cache.tags.data_accesses              148106                       # Number of data accesses
system.l2cache.tags.power_state.pwrStateResidencyTicks::UNDEFINED  19901829000                       # Cumulative time (in ticks) in various power states
system.l2bar.trans_dist::ReadReq                75973                       # Transaction distribution
system.l2bar.trans_dist::ReadResp               75973                       # Transaction distribution
system.l2bar.trans_dist::WritebackDirty         10988                       # Transaction distribution
system.l2bar.pkt_count_system.dcache.mem_side::system.l2cache.cpu_side        87036                       # Packet count per connected master and slave (bytes)
system.l2bar.pkt_count_system.icache.mem_side::system.l2cache.cpu_side        75898                       # Packet count per connected master and slave (bytes)
system.l2bar.pkt_count::total                  162934                       # Packet count per connected master and slave (bytes)
system.l2bar.pkt_size_system.dcache.mem_side::system.l2cache.cpu_side      3136768                       # Cumulative packet size per connected master and slave (bytes)
system.l2bar.pkt_size_system.icache.mem_side::system.l2cache.cpu_side      2428736                       # Cumulative packet size per connected master and slave (bytes)
system.l2bar.pkt_size::total                  5565504                       # Cumulative packet size per connected master and slave (bytes)
system.l2bar.respLayer1.occupancy           189745000                       # Layer occupancy (ticks)
system.l2bar.respLayer1.utilization               1.0                       # Layer utilization (%)
system.l2bar.reqLayer0.occupancy            130913000                       # Layer occupancy (ticks)
system.l2bar.reqLayer0.utilization                0.7                       # Layer utilization (%)
system.l2bar.respLayer0.occupancy           190120000                       # Layer occupancy (ticks)
system.l2bar.respLayer0.utilization               1.0                       # Layer utilization (%)
system.l2bar.power_state.pwrStateResidencyTicks::UNDEFINED  19901829000                       # Cumulative time (in ticks) in various power states
system.cpu.dtb.walker.power_state.pwrStateResidencyTicks::UNDEFINED  19901829000                       # Cumulative time (in ticks) in various power states
system.cpu.interrupts.clk_domain.clock          16000                       # Clock period in ticks
system.cpu.itb.walker.power_state.pwrStateResidencyTicks::UNDEFINED  19901829000                       # Cumulative time (in ticks) in various power states
system.cpu.power_state.numTransitions               1                       # Number of power state transitions
system.cpu.power_state.pwrStateResidencyTicks::ON  19901829000                       # Cumulative time (in ticks) in various power states

---------- End Simulation Statistics   ----------
