
---------- Begin Simulation Statistics ----------
final_tick                                 4298227000                       # Number of ticks from beginning of simulation (restored from checkpoints and never reset)
host_inst_rate                                 208920                       # Simulator instruction rate (inst/s)
host_mem_usage                                1370256                       # Number of bytes of host memory used
host_op_rate                                   420776                       # Simulator op (including micro ops) rate (op/s)
host_seconds                                     4.80                       # Real time elapsed on the host
host_tick_rate                              895233041                       # Simulator tick rate (ticks/s)
sim_freq                                 1000000000000                       # Frequency of simulated ticks
sim_insts                                     1003006                       # Number of instructions simulated
sim_ops                                       2020218                       # Number of ops (including micro ops) simulated
sim_seconds                                  0.004298                       # Number of seconds simulated
sim_ticks                                  4298227000                       # Number of ticks simulated
system.cpu.Branches                            240620                       # Number of branches fetched
system.cpu.committedInsts                     1003006                       # Number of instructions committed
system.cpu.committedOps                       2020218                       # Number of ops (including micro ops) committed
system.cpu.dtb.rdAccesses                      178451                       # TLB accesses on read requests
system.cpu.dtb.rdMisses                           266                       # TLB misses on read requests
system.cpu.dtb.wrAccesses                      135882                       # TLB accesses on write requests
system.cpu.dtb.wrMisses                           203                       # TLB misses on write requests
system.cpu.idle_fraction                            0                       # Percentage of idle cycles
system.cpu.itb.rdAccesses                           0                       # TLB accesses on read requests
system.cpu.itb.rdMisses                             0                       # TLB misses on read requests
system.cpu.itb.wrAccesses                     1297462                       # TLB accesses on write requests
system.cpu.itb.wrMisses                           178                       # TLB misses on write requests
system.cpu.not_idle_fraction                        1                       # Percentage of non-idle cycles
system.cpu.numCycles                          4298216                       # number of cpu cycles simulated
system.cpu.numWorkItemsCompleted                    0                       # number of work items this cpu completed
system.cpu.numWorkItemsStarted                      0                       # number of work items this cpu started
system.cpu.num_busy_cycles                    4298216                       # Number of busy cycles
system.cpu.num_cc_register_reads              1579059                       # number of times the CC registers were read
system.cpu.num_cc_register_writes              732125                       # number of times the CC registers were written
system.cpu.num_conditional_control_insts       202926                       # number of instructions that are conditional controls
system.cpu.num_fp_alu_accesses                  91353                       # Number of float alu accesses
system.cpu.num_fp_insts                         91353                       # number of float instructions
system.cpu.num_fp_register_reads               145093                       # number of times the floating registers were read
system.cpu.num_fp_register_writes               65455                       # number of times the floating registers were written
system.cpu.num_func_calls                       28341                       # number of times a function call or return occured
system.cpu.num_idle_cycles                          0                       # Number of idle cycles
system.cpu.num_int_alu_accesses               1943201                       # Number of integer alu accesses
system.cpu.num_int_insts                      1943201                       # number of integer instructions
system.cpu.num_int_register_reads             3546739                       # number of times the integer registers were read
system.cpu.num_int_register_writes            1572021                       # number of times the integer registers were written
system.cpu.num_load_insts                      177585                       # Number of load instructions
system.cpu.num_mem_refs                        313449                       # number of memory refs
system.cpu.num_store_insts                     135864                       # Number of store instructions
system.cpu.num_vec_alu_accesses                     0                       # Number of vector alu accesses
system.cpu.num_vec_insts                            0                       # number of vector instructions
system.cpu.num_vec_register_reads                   0                       # number of times the vector registers were read
system.cpu.num_vec_register_writes                  0                       # number of times the vector registers were written
system.cpu.op_class::No_OpClass                 23148      1.15%      1.15% # Class of executed instruction
system.cpu.op_class::IntAlu                   1619083     80.14%     81.29% # Class of executed instruction
system.cpu.op_class::IntMult                     1189      0.06%     81.35% # Class of executed instruction
system.cpu.op_class::IntDiv                      1176      0.06%     81.40% # Class of executed instruction
system.cpu.op_class::FloatAdd                     782      0.04%     81.44% # Class of executed instruction
system.cpu.op_class::FloatCmp                       0      0.00%     81.44% # Class of executed instruction
system.cpu.op_class::FloatCvt                       0      0.00%     81.44% # Class of executed instruction
system.cpu.op_class::FloatMult                      0      0.00%     81.44% # Class of executed instruction
system.cpu.op_class::FloatMultAcc                   0      0.00%     81.44% # Class of executed instruction
system.cpu.op_class::FloatDiv                       0      0.00%     81.44% # Class of executed instruction
system.cpu.op_class::FloatMisc                      0      0.00%     81.44% # Class of executed instruction
system.cpu.op_class::FloatSqrt                      0      0.00%     81.44% # Class of executed instruction
system.cpu.op_class::SimdAdd                     1870      0.09%     81.53% # Class of executed instruction
system.cpu.op_class::SimdAddAcc                     0      0.00%     81.53% # Class of executed instruction
system.cpu.op_class::SimdAlu                    30975      1.53%     83.07% # Class of executed instruction
system.cpu.op_class::SimdCmp                       50      0.00%     83.07% # Class of executed instruction
system.cpu.op_class::SimdCvt                    12648      0.63%     83.70% # Class of executed instruction
system.cpu.op_class::SimdMisc                   15127      0.75%     84.44% # Class of executed instruction
system.cpu.op_class::SimdMult                       0      0.00%     84.44% # Class of executed instruction
system.cpu.op_class::SimdMultAcc                    0      0.00%     84.44% # Class of executed instruction
system.cpu.op_class::SimdShift                    771      0.04%     84.48% # Class of executed instruction
system.cpu.op_class::SimdShiftAcc                   0      0.00%     84.48% # Class of executed instruction
system.cpu.op_class::SimdDiv                        0      0.00%     84.48% # Class of executed instruction
system.cpu.op_class::SimdSqrt                       0      0.00%     84.48% # Class of executed instruction
system.cpu.op_class::SimdFloatAdd                   4      0.00%     84.48% # Class of executed instruction
system.cpu.op_class::SimdFloatAlu                   0      0.00%     84.48% # Class of executed instruction
system.cpu.op_class::SimdFloatCmp                   2      0.00%     84.48% # Class of executed instruction
system.cpu.op_class::SimdFloatCvt                  21      0.00%     84.48% # Class of executed instruction
system.cpu.op_class::SimdFloatDiv                   1      0.00%     84.48% # Class of executed instruction
system.cpu.op_class::SimdFloatMisc                  0      0.00%     84.48% # Class of executed instruction
system.cpu.op_class::SimdFloatMult                 12      0.00%     84.49% # Class of executed instruction
system.cpu.op_class::SimdFloatMultAcc               0      0.00%     84.49% # Class of executed instruction
system.cpu.op_class::SimdFloatSqrt                  0      0.00%     84.49% # Class of executed instruction
system.cpu.op_class::SimdReduceAdd                  0      0.00%     84.49% # Class of executed instruction
system.cpu.op_class::SimdReduceAlu                  0      0.00%     84.49% # Class of executed instruction
system.cpu.op_class::SimdReduceCmp                  0      0.00%     84.49% # Class of executed instruction
system.cpu.op_class::SimdFloatReduceAdd             0      0.00%     84.49% # Class of executed instruction
system.cpu.op_class::SimdFloatReduceCmp             0      0.00%     84.49% # Class of executed instruction
system.cpu.op_class::SimdAes                        0      0.00%     84.49% # Class of executed instruction
system.cpu.op_class::SimdAesMix                     0      0.00%     84.49% # Class of executed instruction
system.cpu.op_class::SimdSha1Hash                   0      0.00%     84.49% # Class of executed instruction
system.cpu.op_class::SimdSha1Hash2                  0      0.00%     84.49% # Class of executed instruction
system.cpu.op_class::SimdSha256Hash                 0      0.00%     84.49% # Class of executed instruction
system.cpu.op_class::SimdSha256Hash2                0      0.00%     84.49% # Class of executed instruction
system.cpu.op_class::SimdShaSigma2                  0      0.00%     84.49% # Class of executed instruction
system.cpu.op_class::SimdShaSigma3                  0      0.00%     84.49% # Class of executed instruction
system.cpu.op_class::SimdPredAlu                    0      0.00%     84.49% # Class of executed instruction
system.cpu.op_class::MemRead                   165560      8.19%     92.68% # Class of executed instruction
system.cpu.op_class::MemWrite                  120253      5.95%     98.63% # Class of executed instruction
system.cpu.op_class::FloatMemRead               12025      0.60%     99.23% # Class of executed instruction
system.cpu.op_class::FloatMemWrite              15611      0.77%    100.00% # Class of executed instruction
system.cpu.op_class::IprAccess                      0      0.00%    100.00% # Class of executed instruction
system.cpu.op_class::InstPrefetch                   0      0.00%    100.00% # Class of executed instruction
system.cpu.op_class::total                    2020308                       # Class of executed instruction
system.cpu.workload.numSyscalls                    31                       # Number of system calls
system.dynamic_cache.flushTicks                     0                       # Ticks taken to flush
system.dynamic_cache.numFlushes                     0                       # Number of Flushes Taken
system.cache_small.blocked_cycles::no_mshrs            0                       # number of cycles access was blocked
system.cache_small.blocked_cycles::no_targets            0                       # number of cycles access was blocked
system.cache_small.blocked::no_mshrs                0                       # number of cycles access was blocked
system.cache_small.blocked::no_targets              0                       # number of cycles access was blocked
system.cache_small.avg_blocked_cycles::no_mshrs          nan                       # average number of cycles each access was blocked
system.cache_small.avg_blocked_cycles::no_targets          nan                       # average number of cycles each access was blocked
system.cache_small.replacements                     0                       # number of replacements
system.cache_small.power_state.pwrStateResidencyTicks::UNDEFINED   4298227000                       # Cumulative time (in ticks) in various power states
system.cache_small.tags.tagsinuse                   0                       # Cycle average of tags in use
system.cache_small.tags.total_refs                  0                       # Total number of references to valid blocks.
system.cache_small.tags.sampled_refs                0                       # Sample count of references to valid blocks.
system.cache_small.tags.avg_refs                  nan                       # Average number of references to valid blocks.
system.cache_small.tags.warmup_cycle                0                       # Cycle when the warmup percentage was hit.
system.cache_small.tags.tag_accesses                0                       # Number of tag accesses
system.cache_small.tags.data_accesses               0                       # Number of data accesses
system.cache_small.tags.power_state.pwrStateResidencyTicks::UNDEFINED   4298227000                       # Cumulative time (in ticks) in various power states
system.icache.demand_hits::.cpu.inst          1287150                       # number of demand (read+write) hits
system.icache.demand_hits::total              1287150                       # number of demand (read+write) hits
system.icache.overall_hits::.cpu.inst         1287150                       # number of overall hits
system.icache.overall_hits::total             1287150                       # number of overall hits
system.icache.demand_misses::.cpu.inst          10312                       # number of demand (read+write) misses
system.icache.demand_misses::total              10312                       # number of demand (read+write) misses
system.icache.overall_misses::.cpu.inst         10312                       # number of overall misses
system.icache.overall_misses::total             10312                       # number of overall misses
system.icache.demand_miss_latency::.cpu.inst    550639000                       # number of demand (read+write) miss cycles
system.icache.demand_miss_latency::total    550639000                       # number of demand (read+write) miss cycles
system.icache.overall_miss_latency::.cpu.inst    550639000                       # number of overall miss cycles
system.icache.overall_miss_latency::total    550639000                       # number of overall miss cycles
system.icache.demand_accesses::.cpu.inst      1297462                       # number of demand (read+write) accesses
system.icache.demand_accesses::total          1297462                       # number of demand (read+write) accesses
system.icache.overall_accesses::.cpu.inst      1297462                       # number of overall (read+write) accesses
system.icache.overall_accesses::total         1297462                       # number of overall (read+write) accesses
system.icache.demand_miss_rate::.cpu.inst     0.007948                       # miss rate for demand accesses
system.icache.demand_miss_rate::total        0.007948                       # miss rate for demand accesses
system.icache.overall_miss_rate::.cpu.inst     0.007948                       # miss rate for overall accesses
system.icache.overall_miss_rate::total       0.007948                       # miss rate for overall accesses
system.icache.demand_avg_miss_latency::.cpu.inst 53397.885958                       # average overall miss latency
system.icache.demand_avg_miss_latency::total 53397.885958                       # average overall miss latency
system.icache.overall_avg_miss_latency::.cpu.inst 53397.885958                       # average overall miss latency
system.icache.overall_avg_miss_latency::total 53397.885958                       # average overall miss latency
system.icache.blocked_cycles::no_mshrs              0                       # number of cycles access was blocked
system.icache.blocked_cycles::no_targets            0                       # number of cycles access was blocked
system.icache.blocked::no_mshrs                     0                       # number of cycles access was blocked
system.icache.blocked::no_targets                   0                       # number of cycles access was blocked
system.icache.avg_blocked_cycles::no_mshrs          nan                       # average number of cycles each access was blocked
system.icache.avg_blocked_cycles::no_targets          nan                       # average number of cycles each access was blocked
system.icache.demand_mshr_misses::.cpu.inst        10312                       # number of demand (read+write) MSHR misses
system.icache.demand_mshr_misses::total         10312                       # number of demand (read+write) MSHR misses
system.icache.overall_mshr_misses::.cpu.inst        10312                       # number of overall MSHR misses
system.icache.overall_mshr_misses::total        10312                       # number of overall MSHR misses
system.icache.demand_mshr_miss_latency::.cpu.inst    530015000                       # number of demand (read+write) MSHR miss cycles
system.icache.demand_mshr_miss_latency::total    530015000                       # number of demand (read+write) MSHR miss cycles
system.icache.overall_mshr_miss_latency::.cpu.inst    530015000                       # number of overall MSHR miss cycles
system.icache.overall_mshr_miss_latency::total    530015000                       # number of overall MSHR miss cycles
system.icache.demand_mshr_miss_rate::.cpu.inst     0.007948                       # mshr miss rate for demand accesses
system.icache.demand_mshr_miss_rate::total     0.007948                       # mshr miss rate for demand accesses
system.icache.overall_mshr_miss_rate::.cpu.inst     0.007948                       # mshr miss rate for overall accesses
system.icache.overall_mshr_miss_rate::total     0.007948                       # mshr miss rate for overall accesses
system.icache.demand_avg_mshr_miss_latency::.cpu.inst 51397.885958                       # average overall mshr miss latency
system.icache.demand_avg_mshr_miss_latency::total 51397.885958                       # average overall mshr miss latency
system.icache.overall_avg_mshr_miss_latency::.cpu.inst 51397.885958                       # average overall mshr miss latency
system.icache.overall_avg_mshr_miss_latency::total 51397.885958                       # average overall mshr miss latency
system.icache.replacements                      10056                       # number of replacements
system.icache.ReadReq_hits::.cpu.inst         1287150                       # number of ReadReq hits
system.icache.ReadReq_hits::total             1287150                       # number of ReadReq hits
system.icache.ReadReq_misses::.cpu.inst         10312                       # number of ReadReq misses
system.icache.ReadReq_misses::total             10312                       # number of ReadReq misses
system.icache.ReadReq_miss_latency::.cpu.inst    550639000                       # number of ReadReq miss cycles
system.icache.ReadReq_miss_latency::total    550639000                       # number of ReadReq miss cycles
system.icache.ReadReq_accesses::.cpu.inst      1297462                       # number of ReadReq accesses(hits+misses)
system.icache.ReadReq_accesses::total         1297462                       # number of ReadReq accesses(hits+misses)
system.icache.ReadReq_miss_rate::.cpu.inst     0.007948                       # miss rate for ReadReq accesses
system.icache.ReadReq_miss_rate::total       0.007948                       # miss rate for ReadReq accesses
system.icache.ReadReq_avg_miss_latency::.cpu.inst 53397.885958                       # average ReadReq miss latency
system.icache.ReadReq_avg_miss_latency::total 53397.885958                       # average ReadReq miss latency
system.icache.ReadReq_mshr_misses::.cpu.inst        10312                       # number of ReadReq MSHR misses
system.icache.ReadReq_mshr_misses::total        10312                       # number of ReadReq MSHR misses
system.icache.ReadReq_mshr_miss_latency::.cpu.inst    530015000                       # number of ReadReq MSHR miss cycles
system.icache.ReadReq_mshr_miss_latency::total    530015000                       # number of ReadReq MSHR miss cycles
system.icache.ReadReq_mshr_miss_rate::.cpu.inst     0.007948                       # mshr miss rate for ReadReq accesses
system.icache.ReadReq_mshr_miss_rate::total     0.007948                       # mshr miss rate for ReadReq accesses
system.icache.ReadReq_avg_mshr_miss_latency::.cpu.inst 51397.885958                       # average ReadReq mshr miss latency
system.icache.ReadReq_avg_mshr_miss_latency::total 51397.885958                       # average ReadReq mshr miss latency
system.icache.power_state.pwrStateResidencyTicks::UNDEFINED   4298227000                       # Cumulative time (in ticks) in various power states
system.icache.tags.tagsinuse               245.030424                       # Cycle average of tags in use
system.icache.tags.total_refs                  815521                       # Total number of references to valid blocks.
system.icache.tags.sampled_refs                 10056                       # Sample count of references to valid blocks.
system.icache.tags.avg_refs                 81.097951                       # Average number of references to valid blocks.
system.icache.tags.warmup_cycle                 80000                       # Cycle when the warmup percentage was hit.
system.icache.tags.occ_blocks::.cpu.inst   245.030424                       # Average occupied blocks per requestor
system.icache.tags.occ_percent::.cpu.inst     0.957150                       # Average percentage of cache occupancy
system.icache.tags.occ_percent::total        0.957150                       # Average percentage of cache occupancy
system.icache.tags.occ_task_id_blocks::1024          256                       # Occupied blocks per task id
system.icache.tags.age_task_id_blocks_1024::2           57                       # Occupied blocks per task id
system.icache.tags.age_task_id_blocks_1024::3          199                       # Occupied blocks per task id
system.icache.tags.occ_task_id_percent::1024            1                       # Percentage of cache occupancy per task id
system.icache.tags.tag_accesses               1307774                       # Number of tag accesses
system.icache.tags.data_accesses              1307774                       # Number of data accesses
system.icache.tags.power_state.pwrStateResidencyTicks::UNDEFINED   4298227000                       # Cumulative time (in ticks) in various power states
system.membus.trans_dist::ReadReq               12887                       # Transaction distribution
system.membus.trans_dist::ReadResp              12887                       # Transaction distribution
system.membus.trans_dist::WritebackDirty         4606                       # Transaction distribution
system.membus.pkt_count_system.dynamic_cache.mem_side::system.mem_ctrl.port        30380                       # Packet count per connected master and slave (bytes)
system.membus.pkt_count_system.dynamic_cache.mem_side::total        30380                       # Packet count per connected master and slave (bytes)
system.membus.pkt_count::total                  30380                       # Packet count per connected master and slave (bytes)
system.membus.pkt_size_system.dynamic_cache.mem_side::system.mem_ctrl.port      1119552                       # Cumulative packet size per connected master and slave (bytes)
system.membus.pkt_size_system.dynamic_cache.mem_side::total      1119552                       # Cumulative packet size per connected master and slave (bytes)
system.membus.pkt_size::total                 1119552                       # Cumulative packet size per connected master and slave (bytes)
system.membus.reqLayer2.occupancy            35917000                       # Layer occupancy (ticks)
system.membus.reqLayer2.utilization               0.8                       # Layer utilization (%)
system.membus.respLayer0.occupancy           69295250                       # Layer occupancy (ticks)
system.membus.respLayer0.utilization              1.6                       # Layer utilization (%)
system.membus.power_state.pwrStateResidencyTicks::UNDEFINED   4298227000                       # Cumulative time (in ticks) in various power states
system.mem_ctrl.bytes_read::.cpu.inst          401024                       # Number of bytes read from this memory
system.mem_ctrl.bytes_read::.cpu.data          423744                       # Number of bytes read from this memory
system.mem_ctrl.bytes_read::total              824768                       # Number of bytes read from this memory
system.mem_ctrl.bytes_inst_read::.cpu.inst       401024                       # Number of instructions bytes read from this memory
system.mem_ctrl.bytes_inst_read::total         401024                       # Number of instructions bytes read from this memory
system.mem_ctrl.bytes_written::.writebacks       294784                       # Number of bytes written to this memory
system.mem_ctrl.bytes_written::total           294784                       # Number of bytes written to this memory
system.mem_ctrl.num_reads::.cpu.inst             6266                       # Number of read requests responded to by this memory
system.mem_ctrl.num_reads::.cpu.data             6621                       # Number of read requests responded to by this memory
system.mem_ctrl.num_reads::total                12887                       # Number of read requests responded to by this memory
system.mem_ctrl.num_writes::.writebacks          4606                       # Number of write requests responded to by this memory
system.mem_ctrl.num_writes::total                4606                       # Number of write requests responded to by this memory
system.mem_ctrl.bw_read::.cpu.inst           93299865                       # Total read bandwidth from this memory (bytes/s)
system.mem_ctrl.bw_read::.cpu.data           98585766                       # Total read bandwidth from this memory (bytes/s)
system.mem_ctrl.bw_read::total              191885631                       # Total read bandwidth from this memory (bytes/s)
system.mem_ctrl.bw_inst_read::.cpu.inst      93299865                       # Instruction read bandwidth from this memory (bytes/s)
system.mem_ctrl.bw_inst_read::total          93299865                       # Instruction read bandwidth from this memory (bytes/s)
system.mem_ctrl.bw_write::.writebacks        68582697                       # Write bandwidth from this memory (bytes/s)
system.mem_ctrl.bw_write::total              68582697                       # Write bandwidth from this memory (bytes/s)
system.mem_ctrl.bw_total::.writebacks        68582697                       # Total bandwidth to/from this memory (bytes/s)
system.mem_ctrl.bw_total::.cpu.inst          93299865                       # Total bandwidth to/from this memory (bytes/s)
system.mem_ctrl.bw_total::.cpu.data          98585766                       # Total bandwidth to/from this memory (bytes/s)
system.mem_ctrl.bw_total::total             260468328                       # Total bandwidth to/from this memory (bytes/s)
system.mem_ctrl.avgPriority_.writebacks::samples      4286.00                       # Average QoS priority value for accepted requests
system.mem_ctrl.avgPriority_.cpu.inst::samples      6266.00                       # Average QoS priority value for accepted requests
system.mem_ctrl.avgPriority_.cpu.data::samples      6487.00                       # Average QoS priority value for accepted requests
system.mem_ctrl.priorityMinLatency       0.000000018750                       # per QoS priority minimum request to response latency (s)
system.mem_ctrl.priorityMaxLatency       0.001030062500                       # per QoS priority maximum request to response latency (s)
system.mem_ctrl.numReadWriteTurnArounds           254                       # Number of turnarounds from READ to WRITE
system.mem_ctrl.numWriteReadTurnArounds           254                       # Number of turnarounds from WRITE to READ
system.mem_ctrl.numStayReadState                31001                       # Number of times bus staying in READ state
system.mem_ctrl.numStayWriteState                4021                       # Number of times bus staying in WRITE state
system.mem_ctrl.readReqs                        12887                       # Number of read requests accepted
system.mem_ctrl.writeReqs                        4606                       # Number of write requests accepted
system.mem_ctrl.readBursts                      12887                       # Number of DRAM read bursts, including those serviced by the write queue
system.mem_ctrl.writeBursts                      4606                       # Number of DRAM write bursts, including those merged in the write queue
system.mem_ctrl.servicedByWrQ                     134                       # Number of DRAM read bursts serviced by the write queue
system.mem_ctrl.mergedWrBursts                    320                       # Number of DRAM write bursts merged with an existing one
system.mem_ctrl.neitherReadNorWriteReqs             0                       # Number of requests that are neither read nor write
system.mem_ctrl.perBankRdBursts::0                778                       # Per bank write bursts
system.mem_ctrl.perBankRdBursts::1                344                       # Per bank write bursts
system.mem_ctrl.perBankRdBursts::2                259                       # Per bank write bursts
system.mem_ctrl.perBankRdBursts::3                897                       # Per bank write bursts
system.mem_ctrl.perBankRdBursts::4               1036                       # Per bank write bursts
system.mem_ctrl.perBankRdBursts::5                443                       # Per bank write bursts
system.mem_ctrl.perBankRdBursts::6                408                       # Per bank write bursts
system.mem_ctrl.perBankRdBursts::7               1660                       # Per bank write bursts
system.mem_ctrl.perBankRdBursts::8               1062                       # Per bank write bursts
system.mem_ctrl.perBankRdBursts::9                414                       # Per bank write bursts
system.mem_ctrl.perBankRdBursts::10               582                       # Per bank write bursts
system.mem_ctrl.perBankRdBursts::11              2267                       # Per bank write bursts
system.mem_ctrl.perBankRdBursts::12               619                       # Per bank write bursts
system.mem_ctrl.perBankRdBursts::13               434                       # Per bank write bursts
system.mem_ctrl.perBankRdBursts::14               822                       # Per bank write bursts
system.mem_ctrl.perBankRdBursts::15               728                       # Per bank write bursts
system.mem_ctrl.perBankWrBursts::0                216                       # Per bank write bursts
system.mem_ctrl.perBankWrBursts::1                 68                       # Per bank write bursts
system.mem_ctrl.perBankWrBursts::2                107                       # Per bank write bursts
system.mem_ctrl.perBankWrBursts::3                215                       # Per bank write bursts
system.mem_ctrl.perBankWrBursts::4                486                       # Per bank write bursts
system.mem_ctrl.perBankWrBursts::5                229                       # Per bank write bursts
system.mem_ctrl.perBankWrBursts::6                288                       # Per bank write bursts
system.mem_ctrl.perBankWrBursts::7                514                       # Per bank write bursts
system.mem_ctrl.perBankWrBursts::8                307                       # Per bank write bursts
system.mem_ctrl.perBankWrBursts::9                177                       # Per bank write bursts
system.mem_ctrl.perBankWrBursts::10               221                       # Per bank write bursts
system.mem_ctrl.perBankWrBursts::11                57                       # Per bank write bursts
system.mem_ctrl.perBankWrBursts::12               282                       # Per bank write bursts
system.mem_ctrl.perBankWrBursts::13               364                       # Per bank write bursts
system.mem_ctrl.perBankWrBursts::14               384                       # Per bank write bursts
system.mem_ctrl.perBankWrBursts::15               355                       # Per bank write bursts
system.mem_ctrl.avgRdQLen                        1.00                       # Average read queue length when enqueuing
system.mem_ctrl.avgWrQLen                       24.05                       # Average write queue length when enqueuing
system.mem_ctrl.totQLat                     155371000                       # Total ticks spent queuing
system.mem_ctrl.totBusLat                    63765000                       # Total ticks spent in databus transfers
system.mem_ctrl.totMemAccLat                394489750                       # Total ticks spent from burst creation until serviced by the DRAM
system.mem_ctrl.avgQLat                      12183.09                       # Average queueing delay per DRAM burst
system.mem_ctrl.avgBusLat                     5000.00                       # Average bus latency per DRAM burst
system.mem_ctrl.avgMemAccLat                 30933.09                       # Average memory access latency per DRAM burst
system.mem_ctrl.numRdRetry                          0                       # Number of times read queue was full causing retry
system.mem_ctrl.numWrRetry                          0                       # Number of times write queue was full causing retry
system.mem_ctrl.readRowHits                      8024                       # Number of row buffer hits during reads
system.mem_ctrl.writeRowHits                     3292                       # Number of row buffer hits during writes
system.mem_ctrl.readRowHitRate                  62.92                       # Row buffer hit rate for reads
system.mem_ctrl.writeRowHitRate                 76.81                       # Row buffer hit rate for writes
system.mem_ctrl.readPktSize::0                      0                       # Read request sizes (log2)
system.mem_ctrl.readPktSize::1                      0                       # Read request sizes (log2)
system.mem_ctrl.readPktSize::2                      0                       # Read request sizes (log2)
system.mem_ctrl.readPktSize::3                      0                       # Read request sizes (log2)
system.mem_ctrl.readPktSize::4                      0                       # Read request sizes (log2)
system.mem_ctrl.readPktSize::5                      0                       # Read request sizes (log2)
system.mem_ctrl.readPktSize::6                  12887                       # Read request sizes (log2)
system.mem_ctrl.writePktSize::0                     0                       # Write request sizes (log2)
system.mem_ctrl.writePktSize::1                     0                       # Write request sizes (log2)
system.mem_ctrl.writePktSize::2                     0                       # Write request sizes (log2)
system.mem_ctrl.writePktSize::3                     0                       # Write request sizes (log2)
system.mem_ctrl.writePktSize::4                     0                       # Write request sizes (log2)
system.mem_ctrl.writePktSize::5                     0                       # Write request sizes (log2)
system.mem_ctrl.writePktSize::6                  4606                       # Write request sizes (log2)
system.mem_ctrl.rdQLenPdf::0                    12739                       # What read queue length does an incoming req see
system.mem_ctrl.rdQLenPdf::1                       14                       # What read queue length does an incoming req see
system.mem_ctrl.rdQLenPdf::2                        0                       # What read queue length does an incoming req see
system.mem_ctrl.rdQLenPdf::3                        0                       # What read queue length does an incoming req see
system.mem_ctrl.rdQLenPdf::4                        0                       # What read queue length does an incoming req see
system.mem_ctrl.rdQLenPdf::5                        0                       # What read queue length does an incoming req see
system.mem_ctrl.rdQLenPdf::6                        0                       # What read queue length does an incoming req see
system.mem_ctrl.rdQLenPdf::7                        0                       # What read queue length does an incoming req see
system.mem_ctrl.rdQLenPdf::8                        0                       # What read queue length does an incoming req see
system.mem_ctrl.rdQLenPdf::9                        0                       # What read queue length does an incoming req see
system.mem_ctrl.rdQLenPdf::10                       0                       # What read queue length does an incoming req see
system.mem_ctrl.rdQLenPdf::11                       0                       # What read queue length does an incoming req see
system.mem_ctrl.rdQLenPdf::12                       0                       # What read queue length does an incoming req see
system.mem_ctrl.rdQLenPdf::13                       0                       # What read queue length does an incoming req see
system.mem_ctrl.rdQLenPdf::14                       0                       # What read queue length does an incoming req see
system.mem_ctrl.rdQLenPdf::15                       0                       # What read queue length does an incoming req see
system.mem_ctrl.rdQLenPdf::16                       0                       # What read queue length does an incoming req see
system.mem_ctrl.rdQLenPdf::17                       0                       # What read queue length does an incoming req see
system.mem_ctrl.rdQLenPdf::18                       0                       # What read queue length does an incoming req see
system.mem_ctrl.rdQLenPdf::19                       0                       # What read queue length does an incoming req see
system.mem_ctrl.rdQLenPdf::20                       0                       # What read queue length does an incoming req see
system.mem_ctrl.rdQLenPdf::21                       0                       # What read queue length does an incoming req see
system.mem_ctrl.rdQLenPdf::22                       0                       # What read queue length does an incoming req see
system.mem_ctrl.rdQLenPdf::23                       0                       # What read queue length does an incoming req see
system.mem_ctrl.rdQLenPdf::24                       0                       # What read queue length does an incoming req see
system.mem_ctrl.rdQLenPdf::25                       0                       # What read queue length does an incoming req see
system.mem_ctrl.rdQLenPdf::26                       0                       # What read queue length does an incoming req see
system.mem_ctrl.rdQLenPdf::27                       0                       # What read queue length does an incoming req see
system.mem_ctrl.rdQLenPdf::28                       0                       # What read queue length does an incoming req see
system.mem_ctrl.rdQLenPdf::29                       0                       # What read queue length does an incoming req see
system.mem_ctrl.rdQLenPdf::30                       0                       # What read queue length does an incoming req see
system.mem_ctrl.rdQLenPdf::31                       0                       # What read queue length does an incoming req see
system.mem_ctrl.wrQLenPdf::0                        1                       # What write queue length does an incoming req see
system.mem_ctrl.wrQLenPdf::1                        1                       # What write queue length does an incoming req see
system.mem_ctrl.wrQLenPdf::2                        1                       # What write queue length does an incoming req see
system.mem_ctrl.wrQLenPdf::3                        1                       # What write queue length does an incoming req see
system.mem_ctrl.wrQLenPdf::4                        1                       # What write queue length does an incoming req see
system.mem_ctrl.wrQLenPdf::5                        1                       # What write queue length does an incoming req see
system.mem_ctrl.wrQLenPdf::6                        1                       # What write queue length does an incoming req see
system.mem_ctrl.wrQLenPdf::7                        1                       # What write queue length does an incoming req see
system.mem_ctrl.wrQLenPdf::8                        1                       # What write queue length does an incoming req see
system.mem_ctrl.wrQLenPdf::9                        1                       # What write queue length does an incoming req see
system.mem_ctrl.wrQLenPdf::10                       1                       # What write queue length does an incoming req see
system.mem_ctrl.wrQLenPdf::11                       1                       # What write queue length does an incoming req see
system.mem_ctrl.wrQLenPdf::12                       1                       # What write queue length does an incoming req see
system.mem_ctrl.wrQLenPdf::13                       1                       # What write queue length does an incoming req see
system.mem_ctrl.wrQLenPdf::14                       1                       # What write queue length does an incoming req see
system.mem_ctrl.wrQLenPdf::15                      87                       # What write queue length does an incoming req see
system.mem_ctrl.wrQLenPdf::16                     102                       # What write queue length does an incoming req see
system.mem_ctrl.wrQLenPdf::17                     249                       # What write queue length does an incoming req see
system.mem_ctrl.wrQLenPdf::18                     256                       # What write queue length does an incoming req see
system.mem_ctrl.wrQLenPdf::19                     257                       # What write queue length does an incoming req see
system.mem_ctrl.wrQLenPdf::20                     255                       # What write queue length does an incoming req see
system.mem_ctrl.wrQLenPdf::21                     254                       # What write queue length does an incoming req see
system.mem_ctrl.wrQLenPdf::22                     254                       # What write queue length does an incoming req see
system.mem_ctrl.wrQLenPdf::23                     254                       # What write queue length does an incoming req see
system.mem_ctrl.wrQLenPdf::24                     267                       # What write queue length does an incoming req see
system.mem_ctrl.wrQLenPdf::25                     254                       # What write queue length does an incoming req see
system.mem_ctrl.wrQLenPdf::26                     255                       # What write queue length does an incoming req see
system.mem_ctrl.wrQLenPdf::27                     256                       # What write queue length does an incoming req see
system.mem_ctrl.wrQLenPdf::28                     254                       # What write queue length does an incoming req see
system.mem_ctrl.wrQLenPdf::29                     254                       # What write queue length does an incoming req see
system.mem_ctrl.wrQLenPdf::30                     254                       # What write queue length does an incoming req see
system.mem_ctrl.wrQLenPdf::31                     254                       # What write queue length does an incoming req see
system.mem_ctrl.wrQLenPdf::32                     254                       # What write queue length does an incoming req see
system.mem_ctrl.wrQLenPdf::33                       1                       # What write queue length does an incoming req see
system.mem_ctrl.wrQLenPdf::34                       0                       # What write queue length does an incoming req see
system.mem_ctrl.wrQLenPdf::35                       0                       # What write queue length does an incoming req see
system.mem_ctrl.wrQLenPdf::36                       0                       # What write queue length does an incoming req see
system.mem_ctrl.wrQLenPdf::37                       0                       # What write queue length does an incoming req see
system.mem_ctrl.wrQLenPdf::38                       0                       # What write queue length does an incoming req see
system.mem_ctrl.wrQLenPdf::39                       0                       # What write queue length does an incoming req see
system.mem_ctrl.wrQLenPdf::40                       0                       # What write queue length does an incoming req see
system.mem_ctrl.wrQLenPdf::41                       0                       # What write queue length does an incoming req see
system.mem_ctrl.wrQLenPdf::42                       0                       # What write queue length does an incoming req see
system.mem_ctrl.wrQLenPdf::43                       0                       # What write queue length does an incoming req see
system.mem_ctrl.wrQLenPdf::44                       0                       # What write queue length does an incoming req see
system.mem_ctrl.wrQLenPdf::45                       0                       # What write queue length does an incoming req see
system.mem_ctrl.wrQLenPdf::46                       0                       # What write queue length does an incoming req see
system.mem_ctrl.wrQLenPdf::47                       0                       # What write queue length does an incoming req see
system.mem_ctrl.wrQLenPdf::48                       0                       # What write queue length does an incoming req see
system.mem_ctrl.wrQLenPdf::49                       0                       # What write queue length does an incoming req see
system.mem_ctrl.wrQLenPdf::50                       0                       # What write queue length does an incoming req see
system.mem_ctrl.wrQLenPdf::51                       0                       # What write queue length does an incoming req see
system.mem_ctrl.wrQLenPdf::52                       0                       # What write queue length does an incoming req see
system.mem_ctrl.wrQLenPdf::53                       0                       # What write queue length does an incoming req see
system.mem_ctrl.wrQLenPdf::54                       0                       # What write queue length does an incoming req see
system.mem_ctrl.wrQLenPdf::55                       0                       # What write queue length does an incoming req see
system.mem_ctrl.wrQLenPdf::56                       0                       # What write queue length does an incoming req see
system.mem_ctrl.wrQLenPdf::57                       0                       # What write queue length does an incoming req see
system.mem_ctrl.wrQLenPdf::58                       0                       # What write queue length does an incoming req see
system.mem_ctrl.wrQLenPdf::59                       0                       # What write queue length does an incoming req see
system.mem_ctrl.wrQLenPdf::60                       0                       # What write queue length does an incoming req see
system.mem_ctrl.wrQLenPdf::61                       0                       # What write queue length does an incoming req see
system.mem_ctrl.wrQLenPdf::62                       0                       # What write queue length does an incoming req see
system.mem_ctrl.wrQLenPdf::63                       0                       # What write queue length does an incoming req see
system.mem_ctrl.bytesPerActivate::samples         5707                       # Bytes accessed per row activation
system.mem_ctrl.bytesPerActivate::mean     190.900999                       # Bytes accessed per row activation
system.mem_ctrl.bytesPerActivate::gmean    128.782700                       # Bytes accessed per row activation
system.mem_ctrl.bytesPerActivate::stdev    217.429969                       # Bytes accessed per row activation
system.mem_ctrl.bytesPerActivate::0-127          2625     46.00%     46.00% # Bytes accessed per row activation
system.mem_ctrl.bytesPerActivate::128-255         1864     32.66%     78.66% # Bytes accessed per row activation
system.mem_ctrl.bytesPerActivate::256-383          456      7.99%     86.65% # Bytes accessed per row activation
system.mem_ctrl.bytesPerActivate::384-511          240      4.21%     90.85% # Bytes accessed per row activation
system.mem_ctrl.bytesPerActivate::512-639          155      2.72%     93.57% # Bytes accessed per row activation
system.mem_ctrl.bytesPerActivate::640-767           89      1.56%     95.13% # Bytes accessed per row activation
system.mem_ctrl.bytesPerActivate::768-895           58      1.02%     96.15% # Bytes accessed per row activation
system.mem_ctrl.bytesPerActivate::896-1023           39      0.68%     96.83% # Bytes accessed per row activation
system.mem_ctrl.bytesPerActivate::1024-1151          181      3.17%    100.00% # Bytes accessed per row activation
system.mem_ctrl.bytesPerActivate::total          5707                       # Bytes accessed per row activation
system.mem_ctrl.rdPerTurnAround::samples          254                       # Reads before turning the bus around for writes
system.mem_ctrl.rdPerTurnAround::mean       50.204724                       # Reads before turning the bus around for writes
system.mem_ctrl.rdPerTurnAround::gmean      35.504797                       # Reads before turning the bus around for writes
system.mem_ctrl.rdPerTurnAround::stdev      60.456804                       # Reads before turning the bus around for writes
system.mem_ctrl.rdPerTurnAround::0-31             125     49.21%     49.21% # Reads before turning the bus around for writes
system.mem_ctrl.rdPerTurnAround::32-63             73     28.74%     77.95% # Reads before turning the bus around for writes
system.mem_ctrl.rdPerTurnAround::64-95             24      9.45%     87.40% # Reads before turning the bus around for writes
system.mem_ctrl.rdPerTurnAround::96-127            15      5.91%     93.31% # Reads before turning the bus around for writes
system.mem_ctrl.rdPerTurnAround::128-159            8      3.15%     96.46% # Reads before turning the bus around for writes
system.mem_ctrl.rdPerTurnAround::160-191            4      1.57%     98.03% # Reads before turning the bus around for writes
system.mem_ctrl.rdPerTurnAround::192-223            2      0.79%     98.82% # Reads before turning the bus around for writes
system.mem_ctrl.rdPerTurnAround::256-287            1      0.39%     99.21% # Reads before turning the bus around for writes
system.mem_ctrl.rdPerTurnAround::320-351            1      0.39%     99.61% # Reads before turning the bus around for writes
system.mem_ctrl.rdPerTurnAround::672-703            1      0.39%    100.00% # Reads before turning the bus around for writes
system.mem_ctrl.rdPerTurnAround::total            254                       # Reads before turning the bus around for writes
system.mem_ctrl.wrPerTurnAround::samples          254                       # Writes before turning the bus around for reads
system.mem_ctrl.wrPerTurnAround::mean       16.811024                       # Writes before turning the bus around for reads
system.mem_ctrl.wrPerTurnAround::gmean      16.781229                       # Writes before turning the bus around for reads
system.mem_ctrl.wrPerTurnAround::stdev       1.015549                       # Writes before turning the bus around for reads
system.mem_ctrl.wrPerTurnAround::16               147     57.87%     57.87% # Writes before turning the bus around for reads
system.mem_ctrl.wrPerTurnAround::17                19      7.48%     65.35% # Writes before turning the bus around for reads
system.mem_ctrl.wrPerTurnAround::18                78     30.71%     96.06% # Writes before turning the bus around for reads
system.mem_ctrl.wrPerTurnAround::19                 9      3.54%     99.61% # Writes before turning the bus around for reads
system.mem_ctrl.wrPerTurnAround::20                 1      0.39%    100.00% # Writes before turning the bus around for reads
system.mem_ctrl.wrPerTurnAround::total            254                       # Writes before turning the bus around for reads
system.mem_ctrl.bytesReadDRAM                  816192                       # Total number of bytes read from DRAM
system.mem_ctrl.bytesReadWrQ                     8576                       # Total number of bytes read from write queue
system.mem_ctrl.bytesWritten                   273280                       # Total number of bytes written to DRAM
system.mem_ctrl.bytesReadSys                   824768                       # Total read bytes from the system interface side
system.mem_ctrl.bytesWrittenSys                294784                       # Total written bytes from the system interface side
system.mem_ctrl.avgRdBW                        189.89                       # Average DRAM read bandwidth in MiByte/s
system.mem_ctrl.avgWrBW                         63.58                       # Average achieved write bandwidth in MiByte/s
system.mem_ctrl.avgRdBWSys                     191.89                       # Average system read bandwidth in MiByte/s
system.mem_ctrl.avgWrBWSys                      68.58                       # Average system write bandwidth in MiByte/s
system.mem_ctrl.peakBW                       12800.00                       # Theoretical peak bandwidth in MiByte/s
system.mem_ctrl.busUtil                          1.98                       # Data bus utilization in percentage
system.mem_ctrl.busUtilRead                      1.48                       # Data bus utilization in percentage for reads
system.mem_ctrl.busUtilWrite                     0.50                       # Data bus utilization in percentage for writes
system.mem_ctrl.totGap                     3944549000                       # Total gap between requests
system.mem_ctrl.avgGap                      225493.00                       # Average gap between requests
system.mem_ctrl.masterReadBytes::.cpu.inst       401024                       # Per-master bytes read from memory
system.mem_ctrl.masterReadBytes::.cpu.data       415168                       # Per-master bytes read from memory
system.mem_ctrl.masterWriteBytes::.writebacks       273280                       # Per-master bytes write to memory
system.mem_ctrl.masterReadRate::.cpu.inst 93299865.270028784871                       # Per-master bytes read from memory rate (Bytes/sec)
system.mem_ctrl.masterReadRate::.cpu.data 96590524.418556764722                       # Per-master bytes read from memory rate (Bytes/sec)
system.mem_ctrl.masterWriteRate::.writebacks 63579703.910472854972                       # Per-master bytes write to memory rate (Bytes/sec)
system.mem_ctrl.masterReadAccesses::.cpu.inst         6266                       # Per-master read serviced memory accesses
system.mem_ctrl.masterReadAccesses::.cpu.data         6621                       # Per-master read serviced memory accesses
system.mem_ctrl.masterWriteAccesses::.writebacks         4606                       # Per-master write serviced memory accesses
system.mem_ctrl.masterReadTotalLat::.cpu.inst    198934000                       # Per-master read total memory access latency
system.mem_ctrl.masterReadTotalLat::.cpu.data    195555750                       # Per-master read total memory access latency
system.mem_ctrl.masterWriteTotalLat::.writebacks  93961112750                       # Per-master write total memory access latency
system.mem_ctrl.masterReadAvgLat::.cpu.inst     31748.16                       # Per-master read average memory access latency
system.mem_ctrl.masterReadAvgLat::.cpu.data     29535.68                       # Per-master read average memory access latency
system.mem_ctrl.masterWriteAvgLat::.writebacks  20399720.53                       # Per-master write average memory access latency
system.mem_ctrl.pageHitRate                     66.41                       # Row buffer hit rate, read and write combined
system.mem_ctrl.rank1.actEnergy              23290680                       # Energy for activate commands per rank (pJ)
system.mem_ctrl.rank1.preEnergy              12379290                       # Energy for precharge commands per rank (pJ)
system.mem_ctrl.rank1.readEnergy             49465920                       # Energy for read commands per rank (pJ)
system.mem_ctrl.rank1.writeEnergy            11207340                       # Energy for write commands per rank (pJ)
system.mem_ctrl.rank1.refreshEnergy      339281280.000000                       # Energy for refresh commands per rank (pJ)
system.mem_ctrl.rank1.actBackEnergy        1377274470                       # Energy for active background per rank (pJ)
system.mem_ctrl.rank1.preBackEnergy         490720320                       # Energy for precharge background per rank (pJ)
system.mem_ctrl.rank1.actPowerDownEnergy            0                       # Energy for active power-down per rank (pJ)
system.mem_ctrl.rank1.prePowerDownEnergy            0                       # Energy for precharge power-down per rank (pJ)
system.mem_ctrl.rank1.selfRefreshEnergy             0                       # Energy for self refresh per rank (pJ)
system.mem_ctrl.rank1.totalEnergy          2303619300                       # Total energy per rank (pJ)
system.mem_ctrl.rank1.averagePower         535.946403                       # Core power per rank (mW)
system.mem_ctrl.rank1.totalIdleTime                 0                       # Total Idle time Per DRAM Rank
system.mem_ctrl.rank1.memoryStateTime::IDLE   1259939750                       # Time in different power states
system.mem_ctrl.rank1.memoryStateTime::REF    143477000                       # Time in different power states
system.mem_ctrl.rank1.memoryStateTime::SREF            0                       # Time in different power states
system.mem_ctrl.rank1.memoryStateTime::PRE_PDN            0                       # Time in different power states
system.mem_ctrl.rank1.memoryStateTime::ACT   2894810250                       # Time in different power states
system.mem_ctrl.rank1.memoryStateTime::ACT_PDN            0                       # Time in different power states
system.mem_ctrl.rank0.actEnergy              17457300                       # Energy for activate commands per rank (pJ)
system.mem_ctrl.rank0.preEnergy               9278775                       # Energy for precharge commands per rank (pJ)
system.mem_ctrl.rank0.readEnergy             41590500                       # Energy for read commands per rank (pJ)
system.mem_ctrl.rank0.writeEnergy            11082060                       # Energy for write commands per rank (pJ)
system.mem_ctrl.rank0.refreshEnergy      339281280.000000                       # Energy for refresh commands per rank (pJ)
system.mem_ctrl.rank0.actBackEnergy        1317574950                       # Energy for active background per rank (pJ)
system.mem_ctrl.rank0.preBackEnergy         540993600                       # Energy for precharge background per rank (pJ)
system.mem_ctrl.rank0.actPowerDownEnergy            0                       # Energy for active power-down per rank (pJ)
system.mem_ctrl.rank0.prePowerDownEnergy            0                       # Energy for precharge power-down per rank (pJ)
system.mem_ctrl.rank0.selfRefreshEnergy             0                       # Energy for self refresh per rank (pJ)
system.mem_ctrl.rank0.totalEnergy          2277258465                       # Total energy per rank (pJ)
system.mem_ctrl.rank0.averagePower         529.813447                       # Core power per rank (mW)
system.mem_ctrl.rank0.totalIdleTime                 0                       # Total Idle time Per DRAM Rank
system.mem_ctrl.rank0.memoryStateTime::IDLE   1393431000                       # Time in different power states
system.mem_ctrl.rank0.memoryStateTime::REF    143477000                       # Time in different power states
system.mem_ctrl.rank0.memoryStateTime::SREF            0                       # Time in different power states
system.mem_ctrl.rank0.memoryStateTime::PRE_PDN            0                       # Time in different power states
system.mem_ctrl.rank0.memoryStateTime::ACT   2761319000                       # Time in different power states
system.mem_ctrl.rank0.memoryStateTime::ACT_PDN            0                       # Time in different power states
system.mem_ctrl.power_state.pwrStateResidencyTicks::UNDEFINED   4298227000                       # Cumulative time (in ticks) in various power states
system.cache_medium.blocked_cycles::no_mshrs            0                       # number of cycles access was blocked
system.cache_medium.blocked_cycles::no_targets            0                       # number of cycles access was blocked
system.cache_medium.blocked::no_mshrs               0                       # number of cycles access was blocked
system.cache_medium.blocked::no_targets             0                       # number of cycles access was blocked
system.cache_medium.avg_blocked_cycles::no_mshrs          nan                       # average number of cycles each access was blocked
system.cache_medium.avg_blocked_cycles::no_targets          nan                       # average number of cycles each access was blocked
system.cache_medium.replacements                    0                       # number of replacements
system.cache_medium.power_state.pwrStateResidencyTicks::UNDEFINED   4298227000                       # Cumulative time (in ticks) in various power states
system.cache_medium.tags.tagsinuse                  0                       # Cycle average of tags in use
system.cache_medium.tags.total_refs                 0                       # Total number of references to valid blocks.
system.cache_medium.tags.sampled_refs               0                       # Sample count of references to valid blocks.
system.cache_medium.tags.avg_refs                 nan                       # Average number of references to valid blocks.
system.cache_medium.tags.warmup_cycle               0                       # Cycle when the warmup percentage was hit.
system.cache_medium.tags.tag_accesses               0                       # Number of tag accesses
system.cache_medium.tags.data_accesses              0                       # Number of data accesses
system.cache_medium.tags.power_state.pwrStateResidencyTicks::UNDEFINED   4298227000                       # Cumulative time (in ticks) in various power states
system.clk_domain.clock                          1000                       # Clock period in ticks
system.clk_domain.voltage_domain.voltage            1                       # Voltage in Volts
system.dcache.demand_hits::.cpu.data           304310                       # number of demand (read+write) hits
system.dcache.demand_hits::total               304310                       # number of demand (read+write) hits
system.dcache.overall_hits::.cpu.data          304943                       # number of overall hits
system.dcache.overall_hits::total              304943                       # number of overall hits
system.dcache.demand_misses::.cpu.data           8959                       # number of demand (read+write) misses
system.dcache.demand_misses::total               8959                       # number of demand (read+write) misses
system.dcache.overall_misses::.cpu.data          9300                       # number of overall misses
system.dcache.overall_misses::total              9300                       # number of overall misses
system.dcache.demand_miss_latency::.cpu.data    518961000                       # number of demand (read+write) miss cycles
system.dcache.demand_miss_latency::total    518961000                       # number of demand (read+write) miss cycles
system.dcache.overall_miss_latency::.cpu.data    541727000                       # number of overall miss cycles
system.dcache.overall_miss_latency::total    541727000                       # number of overall miss cycles
system.dcache.demand_accesses::.cpu.data       313269                       # number of demand (read+write) accesses
system.dcache.demand_accesses::total           313269                       # number of demand (read+write) accesses
system.dcache.overall_accesses::.cpu.data       314243                       # number of overall (read+write) accesses
system.dcache.overall_accesses::total          314243                       # number of overall (read+write) accesses
system.dcache.demand_miss_rate::.cpu.data     0.028598                       # miss rate for demand accesses
system.dcache.demand_miss_rate::total        0.028598                       # miss rate for demand accesses
system.dcache.overall_miss_rate::.cpu.data     0.029595                       # miss rate for overall accesses
system.dcache.overall_miss_rate::total       0.029595                       # miss rate for overall accesses
system.dcache.demand_avg_miss_latency::.cpu.data 57926.219444                       # average overall miss latency
system.dcache.demand_avg_miss_latency::total 57926.219444                       # average overall miss latency
system.dcache.overall_avg_miss_latency::.cpu.data 58250.215054                       # average overall miss latency
system.dcache.overall_avg_miss_latency::total 58250.215054                       # average overall miss latency
system.dcache.blocked_cycles::no_mshrs              0                       # number of cycles access was blocked
system.dcache.blocked_cycles::no_targets            0                       # number of cycles access was blocked
system.dcache.blocked::no_mshrs                     0                       # number of cycles access was blocked
system.dcache.blocked::no_targets                   0                       # number of cycles access was blocked
system.dcache.avg_blocked_cycles::no_mshrs          nan                       # average number of cycles each access was blocked
system.dcache.avg_blocked_cycles::no_targets          nan                       # average number of cycles each access was blocked
system.dcache.writebacks::.writebacks            5741                       # number of writebacks
system.dcache.writebacks::total                  5741                       # number of writebacks
system.dcache.demand_mshr_misses::.cpu.data         8959                       # number of demand (read+write) MSHR misses
system.dcache.demand_mshr_misses::total          8959                       # number of demand (read+write) MSHR misses
system.dcache.overall_mshr_misses::.cpu.data         9300                       # number of overall MSHR misses
system.dcache.overall_mshr_misses::total         9300                       # number of overall MSHR misses
system.dcache.demand_mshr_miss_latency::.cpu.data    501045000                       # number of demand (read+write) MSHR miss cycles
system.dcache.demand_mshr_miss_latency::total    501045000                       # number of demand (read+write) MSHR miss cycles
system.dcache.overall_mshr_miss_latency::.cpu.data    523129000                       # number of overall MSHR miss cycles
system.dcache.overall_mshr_miss_latency::total    523129000                       # number of overall MSHR miss cycles
system.dcache.demand_mshr_miss_rate::.cpu.data     0.028598                       # mshr miss rate for demand accesses
system.dcache.demand_mshr_miss_rate::total     0.028598                       # mshr miss rate for demand accesses
system.dcache.overall_mshr_miss_rate::.cpu.data     0.029595                       # mshr miss rate for overall accesses
system.dcache.overall_mshr_miss_rate::total     0.029595                       # mshr miss rate for overall accesses
system.dcache.demand_avg_mshr_miss_latency::.cpu.data 55926.442683                       # average overall mshr miss latency
system.dcache.demand_avg_mshr_miss_latency::total 55926.442683                       # average overall mshr miss latency
system.dcache.overall_avg_mshr_miss_latency::.cpu.data 56250.430108                       # average overall mshr miss latency
system.dcache.overall_avg_mshr_miss_latency::total 56250.430108                       # average overall mshr miss latency
system.dcache.replacements                       9043                       # number of replacements
system.dcache.ReadReq_hits::.cpu.data          172869                       # number of ReadReq hits
system.dcache.ReadReq_hits::total              172869                       # number of ReadReq hits
system.dcache.ReadReq_misses::.cpu.data          4591                       # number of ReadReq misses
system.dcache.ReadReq_misses::total              4591                       # number of ReadReq misses
system.dcache.ReadReq_miss_latency::.cpu.data    242679000                       # number of ReadReq miss cycles
system.dcache.ReadReq_miss_latency::total    242679000                       # number of ReadReq miss cycles
system.dcache.ReadReq_accesses::.cpu.data       177460                       # number of ReadReq accesses(hits+misses)
system.dcache.ReadReq_accesses::total          177460                       # number of ReadReq accesses(hits+misses)
system.dcache.ReadReq_miss_rate::.cpu.data     0.025871                       # miss rate for ReadReq accesses
system.dcache.ReadReq_miss_rate::total       0.025871                       # miss rate for ReadReq accesses
system.dcache.ReadReq_avg_miss_latency::.cpu.data 52859.725550                       # average ReadReq miss latency
system.dcache.ReadReq_avg_miss_latency::total 52859.725550                       # average ReadReq miss latency
system.dcache.ReadReq_mshr_misses::.cpu.data         4591                       # number of ReadReq MSHR misses
system.dcache.ReadReq_mshr_misses::total         4591                       # number of ReadReq MSHR misses
system.dcache.ReadReq_mshr_miss_latency::.cpu.data    233497000                       # number of ReadReq MSHR miss cycles
system.dcache.ReadReq_mshr_miss_latency::total    233497000                       # number of ReadReq MSHR miss cycles
system.dcache.ReadReq_mshr_miss_rate::.cpu.data     0.025871                       # mshr miss rate for ReadReq accesses
system.dcache.ReadReq_mshr_miss_rate::total     0.025871                       # mshr miss rate for ReadReq accesses
system.dcache.ReadReq_avg_mshr_miss_latency::.cpu.data 50859.725550                       # average ReadReq mshr miss latency
system.dcache.ReadReq_avg_mshr_miss_latency::total 50859.725550                       # average ReadReq mshr miss latency
system.dcache.WriteReq_hits::.cpu.data         131441                       # number of WriteReq hits
system.dcache.WriteReq_hits::total             131441                       # number of WriteReq hits
system.dcache.WriteReq_misses::.cpu.data         4368                       # number of WriteReq misses
system.dcache.WriteReq_misses::total             4368                       # number of WriteReq misses
system.dcache.WriteReq_miss_latency::.cpu.data    276282000                       # number of WriteReq miss cycles
system.dcache.WriteReq_miss_latency::total    276282000                       # number of WriteReq miss cycles
system.dcache.WriteReq_accesses::.cpu.data       135809                       # number of WriteReq accesses(hits+misses)
system.dcache.WriteReq_accesses::total         135809                       # number of WriteReq accesses(hits+misses)
system.dcache.WriteReq_miss_rate::.cpu.data     0.032163                       # miss rate for WriteReq accesses
system.dcache.WriteReq_miss_rate::total      0.032163                       # miss rate for WriteReq accesses
system.dcache.WriteReq_avg_miss_latency::.cpu.data 63251.373626                       # average WriteReq miss latency
system.dcache.WriteReq_avg_miss_latency::total 63251.373626                       # average WriteReq miss latency
system.dcache.WriteReq_mshr_misses::.cpu.data         4368                       # number of WriteReq MSHR misses
system.dcache.WriteReq_mshr_misses::total         4368                       # number of WriteReq MSHR misses
system.dcache.WriteReq_mshr_miss_latency::.cpu.data    267548000                       # number of WriteReq MSHR miss cycles
system.dcache.WriteReq_mshr_miss_latency::total    267548000                       # number of WriteReq MSHR miss cycles
system.dcache.WriteReq_mshr_miss_rate::.cpu.data     0.032163                       # mshr miss rate for WriteReq accesses
system.dcache.WriteReq_mshr_miss_rate::total     0.032163                       # mshr miss rate for WriteReq accesses
system.dcache.WriteReq_avg_mshr_miss_latency::.cpu.data 61251.831502                       # average WriteReq mshr miss latency
system.dcache.WriteReq_avg_mshr_miss_latency::total 61251.831502                       # average WriteReq mshr miss latency
system.dcache.SoftPFReq_hits::.cpu.data           633                       # number of SoftPFReq hits
system.dcache.SoftPFReq_hits::total               633                       # number of SoftPFReq hits
system.dcache.SoftPFReq_misses::.cpu.data          341                       # number of SoftPFReq misses
system.dcache.SoftPFReq_misses::total             341                       # number of SoftPFReq misses
system.dcache.SoftPFReq_miss_latency::.cpu.data     22766000                       # number of SoftPFReq miss cycles
system.dcache.SoftPFReq_miss_latency::total     22766000                       # number of SoftPFReq miss cycles
system.dcache.SoftPFReq_accesses::.cpu.data          974                       # number of SoftPFReq accesses(hits+misses)
system.dcache.SoftPFReq_accesses::total           974                       # number of SoftPFReq accesses(hits+misses)
system.dcache.SoftPFReq_miss_rate::.cpu.data     0.350103                       # miss rate for SoftPFReq accesses
system.dcache.SoftPFReq_miss_rate::total     0.350103                       # miss rate for SoftPFReq accesses
system.dcache.SoftPFReq_avg_miss_latency::.cpu.data 66762.463343                       # average SoftPFReq miss latency
system.dcache.SoftPFReq_avg_miss_latency::total 66762.463343                       # average SoftPFReq miss latency
system.dcache.SoftPFReq_mshr_misses::.cpu.data          341                       # number of SoftPFReq MSHR misses
system.dcache.SoftPFReq_mshr_misses::total          341                       # number of SoftPFReq MSHR misses
system.dcache.SoftPFReq_mshr_miss_latency::.cpu.data     22084000                       # number of SoftPFReq MSHR miss cycles
system.dcache.SoftPFReq_mshr_miss_latency::total     22084000                       # number of SoftPFReq MSHR miss cycles
system.dcache.SoftPFReq_mshr_miss_rate::.cpu.data     0.350103                       # mshr miss rate for SoftPFReq accesses
system.dcache.SoftPFReq_mshr_miss_rate::total     0.350103                       # mshr miss rate for SoftPFReq accesses
system.dcache.SoftPFReq_avg_mshr_miss_latency::.cpu.data 64762.463343                       # average SoftPFReq mshr miss latency
system.dcache.SoftPFReq_avg_mshr_miss_latency::total 64762.463343                       # average SoftPFReq mshr miss latency
system.dcache.power_state.pwrStateResidencyTicks::UNDEFINED   4298227000                       # Cumulative time (in ticks) in various power states
system.dcache.tags.tagsinuse               252.562102                       # Cycle average of tags in use
system.dcache.tags.total_refs                  231421                       # Total number of references to valid blocks.
system.dcache.tags.sampled_refs                  9043                       # Sample count of references to valid blocks.
system.dcache.tags.avg_refs                 25.591175                       # Average number of references to valid blocks.
system.dcache.tags.warmup_cycle                167000                       # Cycle when the warmup percentage was hit.
system.dcache.tags.occ_blocks::.cpu.data   252.562102                       # Average occupied blocks per requestor
system.dcache.tags.occ_percent::.cpu.data     0.986571                       # Average percentage of cache occupancy
system.dcache.tags.occ_percent::total        0.986571                       # Average percentage of cache occupancy
system.dcache.tags.occ_task_id_blocks::1024          256                       # Occupied blocks per task id
system.dcache.tags.age_task_id_blocks_1024::2          150                       # Occupied blocks per task id
system.dcache.tags.age_task_id_blocks_1024::3          106                       # Occupied blocks per task id
system.dcache.tags.occ_task_id_percent::1024            1                       # Percentage of cache occupancy per task id
system.dcache.tags.tag_accesses                323542                       # Number of tag accesses
system.dcache.tags.data_accesses               323542                       # Number of data accesses
system.dcache.tags.power_state.pwrStateResidencyTicks::UNDEFINED   4298227000                       # Cumulative time (in ticks) in various power states
system.cache_large.blocked_cycles::no_mshrs            0                       # number of cycles access was blocked
system.cache_large.blocked_cycles::no_targets            0                       # number of cycles access was blocked
system.cache_large.blocked::no_mshrs                0                       # number of cycles access was blocked
system.cache_large.blocked::no_targets              0                       # number of cycles access was blocked
system.cache_large.avg_blocked_cycles::no_mshrs          nan                       # average number of cycles each access was blocked
system.cache_large.avg_blocked_cycles::no_targets          nan                       # average number of cycles each access was blocked
system.cache_large.replacements                     0                       # number of replacements
system.cache_large.power_state.pwrStateResidencyTicks::UNDEFINED   4298227000                       # Cumulative time (in ticks) in various power states
system.cache_large.tags.tagsinuse                   0                       # Cycle average of tags in use
system.cache_large.tags.total_refs                  0                       # Total number of references to valid blocks.
system.cache_large.tags.sampled_refs                0                       # Sample count of references to valid blocks.
system.cache_large.tags.avg_refs                  nan                       # Average number of references to valid blocks.
system.cache_large.tags.warmup_cycle                0                       # Cycle when the warmup percentage was hit.
system.cache_large.tags.tag_accesses                0                       # Number of tag accesses
system.cache_large.tags.data_accesses               0                       # Number of data accesses
[...]
system.dcache.tags.age_task_id_blocks_1024::0            3                       # Occupied blocks per task id
system.dcache.tags.age_task_id_blocks_1024::1           19                       # Occupied blocks per task id
system.dcache.tags.age_task_id_blocks_1024::2          234                       # Occupied blocks per task id
system.dcache.tags.occ_task_id_percent::1024            1                       # Percentage of cache occupancy per task id
system.dcache.tags.tag_accesses               2764705                       # Number of tag accesses
system.dcache.tags.data_accesses              2764705                       # Number of data accesses
system.dcache.tags.power_state.pwrStateResidencyTicks::UNDEFINED  31896710000                       # Cumulative time (in ticks) in various power states
system.cache_large.blocked_cycles::no_mshrs            0                       # number of cycles access was blocked
system.cache_large.blocked_cycles::no_targets            0                       # number of cycles access was blocked
system.cache_large.blocked::no_mshrs                0                       # number of cycles access was blocked
system.cache_large.blocked::no_targets              0                       # number of cycles access was blocked
system.cache_large.avg_blocked_cycles::no_mshrs          nan                       # average number of cycles each access was blocked
system.cache_large.avg_blocked_cycles::no_targets          nan                       # average number of cycles each access was blocked
system.cache_large.replacements                     0                       # number of replacements
system.cache_large.power_state.pwrStateResidencyTicks::UNDEFINED  31896710000                       # Cumulative time (in ticks) in various power states
system.cache_large.tags.tagsinuse                   0                       # Cycle average of tags in use
system.cache_large.tags.total_refs                  0                       # Total number of references to valid blocks.
system.cache_large.tags.sampled_refs                0                       # Sample count of references to valid blocks.
system.cache_large.tags.avg_refs                  nan                       # Average number of references to valid blocks.
system.cache_large.tags.warmup_cycle                0                       # Cycle when the warmup percentage was hit.
system.cache_large.tags.tag_accesses                0                       # Number of tag accesses
system.cache_large.tags.data_accesses               0                       # Number of data accesses
system.cache_large.tags.power_state.pwrStateResidencyTicks::UNDEFINED  31896710000                       # Cumulative time (in ticks) in various power states
system.l2cache.demand_hits::.cpu.inst           85490                       # number of demand (read+write) hits
system.l2cache.demand_hits::.cpu.data           36632                       # number of demand (read+write) hits
system.l2cache.demand_hits::total              122122                       # number of demand (read+write) hits
system.l2cache.overall_hits::.cpu.inst          85490                       # number of overall hits
system.l2cache.overall_hits::.cpu.data          36632                       # number of overall hits
system.l2cache.overall_hits::total             122122                       # number of overall hits
system.l2cache.demand_misses::.cpu.inst         64957                       # number of demand (read+write) misses
system.l2cache.demand_misses::.cpu.data         60544                       # number of demand (read+write) misses
system.l2cache.demand_misses::total            125501                       # number of demand (read+write) misses
system.l2cache.overall_misses::.cpu.inst        64957                       # number of overall misses
system.l2cache.overall_misses::.cpu.data        60544                       # number of overall misses
system.l2cache.overall_misses::total           125501                       # number of overall misses
system.l2cache.demand_miss_latency::.cpu.inst   2379716000                       # number of demand (read+write) miss cycles
system.l2cache.demand_miss_latency::.cpu.data   3482172000                       # number of demand (read+write) miss cycles
system.l2cache.demand_miss_latency::total   5861888000                       # number of demand (read+write) miss cycles
system.l2cache.overall_miss_latency::.cpu.inst   2379716000                       # number of overall miss cycles
system.l2cache.overall_miss_latency::.cpu.data   3482172000                       # number of overall miss cycles
system.l2cache.overall_miss_latency::total   5861888000                       # number of overall miss cycles
system.l2cache.demand_accesses::.cpu.inst       150447                       # number of demand (read+write) accesses
system.l2cache.demand_accesses::.cpu.data        97176                       # number of demand (read+write) accesses
system.l2cache.demand_accesses::total          247623                       # number of demand (read+write) accesses
system.l2cache.overall_accesses::.cpu.inst       150447                       # number of overall (read+write) accesses
system.l2cache.overall_accesses::.cpu.data        97176                       # number of overall (read+write) accesses
system.l2cache.overall_accesses::total         247623                       # number of overall (read+write) accesses
system.l2cache.demand_miss_rate::.cpu.inst     0.431760                       # miss rate for demand accesses
system.l2cache.demand_miss_rate::.cpu.data     0.623034                       # miss rate for demand accesses
system.l2cache.demand_miss_rate::total       0.506823                       # miss rate for demand accesses
system.l2cache.overall_miss_rate::.cpu.inst     0.431760                       # miss rate for overall accesses
system.l2cache.overall_miss_rate::.cpu.data     0.623034                       # miss rate for overall accesses
system.l2cache.overall_miss_rate::total      0.506823                       # miss rate for overall accesses
system.l2cache.demand_avg_miss_latency::.cpu.inst 36635.251012                       # average overall miss latency
system.l2cache.demand_avg_miss_latency::.cpu.data 57514.733087                       # average overall miss latency
system.l2cache.demand_avg_miss_latency::total 46707.898742                       # average overall miss latency
system.l2cache.overall_avg_miss_latency::.cpu.inst 36635.251012                       # average overall miss latency
system.l2cache.overall_avg_miss_latency::.cpu.data 57514.733087                       # average overall miss latency
system.l2cache.overall_avg_miss_latency::total 46707.898742                       # average overall miss latency
system.l2cache.blocked_cycles::no_mshrs             0                       # number of cycles access was blocked
system.l2cache.blocked_cycles::no_targets            0                       # number of cycles access was blocked
system.l2cache.blocked::no_mshrs                    0                       # number of cycles access was blocked
system.l2cache.blocked::no_targets                  0                       # number of cycles access was blocked
system.l2cache.avg_blocked_cycles::no_mshrs          nan                       # average number of cycles each access was blocked
system.l2cache.avg_blocked_cycles::no_targets          nan                       # average number of cycles each access was blocked
system.l2cache.writebacks::.writebacks          41607                       # number of writebacks
system.l2cache.writebacks::total                41607                       # number of writebacks
system.l2cache.demand_mshr_misses::.cpu.inst        64957                       # number of demand (read+write) MSHR misses
system.l2cache.demand_mshr_misses::.cpu.data        60544                       # number of demand (read+write) MSHR misses
system.l2cache.demand_mshr_misses::total       125501                       # number of demand (read+write) MSHR misses
system.l2cache.overall_mshr_misses::.cpu.inst        64957                       # number of overall MSHR misses
system.l2cache.overall_mshr_misses::.cpu.data        60544                       # number of overall MSHR misses
system.l2cache.overall_mshr_misses::total       125501                       # number of overall MSHR misses
system.l2cache.demand_mshr_miss_latency::.cpu.inst   2249802000                       # number of demand (read+write) MSHR miss cycles
system.l2cache.demand_mshr_miss_latency::.cpu.data   3361084000                       # number of demand (read+write) MSHR miss cycles
system.l2cache.demand_mshr_miss_latency::total   5610886000                       # number of demand (read+write) MSHR miss cycles
system.l2cache.overall_mshr_miss_latency::.cpu.inst   2249802000                       # number of overall MSHR miss cycles
system.l2cache.overall_mshr_miss_latency::.cpu.data   3361084000                       # number of overall MSHR miss cycles
system.l2cache.overall_mshr_miss_latency::total   5610886000                       # number of overall MSHR miss cycles
system.l2cache.demand_mshr_miss_rate::.cpu.inst     0.431760                       # mshr miss rate for demand accesses
system.l2cache.demand_mshr_miss_rate::.cpu.data     0.623034                       # mshr miss rate for demand accesses
system.l2cache.demand_mshr_miss_rate::total     0.506823                       # mshr miss rate for demand accesses
system.l2cache.overall_mshr_miss_rate::.cpu.inst     0.431760                       # mshr miss rate for overall accesses
system.l2cache.overall_mshr_miss_rate::.cpu.data     0.623034                       # mshr miss rate for overall accesses
system.l2cache.overall_mshr_miss_rate::total     0.506823                       # mshr miss rate for overall accesses
system.l2cache.demand_avg_mshr_miss_latency::.cpu.inst 34635.251012                       # average overall mshr miss latency
system.l2cache.demand_avg_mshr_miss_latency::.cpu.data 55514.733087                       # average overall mshr miss latency
system.l2cache.demand_avg_mshr_miss_latency::total 44707.898742                       # average overall mshr miss latency
system.l2cache.overall_avg_mshr_miss_latency::.cpu.inst 34635.251012                       # average overall mshr miss latency
system.l2cache.overall_avg_mshr_miss_latency::.cpu.data 55514.733087                       # average overall mshr miss latency
system.l2cache.overall_avg_mshr_miss_latency::total 44707.898742                       # average overall mshr miss latency
system.l2cache.replacements                    149067                       # number of replacements
system.l2cache.ReadReq_hits::.cpu.inst          85490                       # number of ReadReq hits
system.l2cache.ReadReq_hits::.cpu.data          36632                       # number of ReadReq hits
system.l2cache.ReadReq_hits::total             122122                       # number of ReadReq hits
system.l2cache.ReadReq_misses::.cpu.inst        64957                       # number of ReadReq misses
system.l2cache.ReadReq_misses::.cpu.data        60544                       # number of ReadReq misses
system.l2cache.ReadReq_misses::total           125501                       # number of ReadReq misses
system.l2cache.ReadReq_miss_latency::.cpu.inst   2379716000                       # number of ReadReq miss cycles
system.l2cache.ReadReq_miss_latency::.cpu.data   3482172000                       # number of ReadReq miss cycles
system.l2cache.ReadReq_miss_latency::total   5861888000                       # number of ReadReq miss cycles
system.l2cache.ReadReq_accesses::.cpu.inst       150447                       # number of ReadReq accesses(hits+misses)
system.l2cache.ReadReq_accesses::.cpu.data        97176                       # number of ReadReq accesses(hits+misses)
system.l2cache.ReadReq_accesses::total         247623                       # number of ReadReq accesses(hits+misses)
system.l2cache.ReadReq_miss_rate::.cpu.inst     0.431760                       # miss rate for ReadReq accesses
system.l2cache.ReadReq_miss_rate::.cpu.data     0.623034                       # miss rate for ReadReq accesses
system.l2cache.ReadReq_miss_rate::total      0.506823                       # miss rate for ReadReq accesses
system.l2cache.ReadReq_avg_miss_latency::.cpu.inst 36635.251012                       # average ReadReq miss latency
system.l2cache.ReadReq_avg_miss_latency::.cpu.data 57514.733087                       # average ReadReq miss latency
system.l2cache.ReadReq_avg_miss_latency::total 46707.898742                       # average ReadReq miss latency
system.l2cache.ReadReq_mshr_misses::.cpu.inst        64957                       # number of ReadReq MSHR misses
system.l2cache.ReadReq_mshr_misses::.cpu.data        60544                       # number of ReadReq MSHR misses
system.l2cache.ReadReq_mshr_misses::total       125501                       # number of ReadReq MSHR misses
system.l2cache.ReadReq_mshr_miss_latency::.cpu.inst   2249802000                       # number of ReadReq MSHR miss cycles
system.l2cache.ReadReq_mshr_miss_latency::.cpu.data   3361084000                       # number of ReadReq MSHR miss cycles
system.l2cache.ReadReq_mshr_miss_latency::total   5610886000                       # number of ReadReq MSHR miss cycles
system.l2cache.ReadReq_mshr_miss_rate::.cpu.inst     0.431760                       # mshr miss rate for ReadReq accesses
system.l2cache.ReadReq_mshr_miss_rate::.cpu.data     0.623034                       # mshr miss rate for ReadReq accesses
system.l2cache.ReadReq_mshr_miss_rate::total     0.506823                       # mshr miss rate for ReadReq accesses
system.l2cache.ReadReq_avg_mshr_miss_latency::.cpu.inst 34635.251012                       # average ReadReq mshr miss latency
system.l2cache.ReadReq_avg_mshr_miss_latency::.cpu.data 55514.733087                       # average ReadReq mshr miss latency
system.l2cache.ReadReq_avg_mshr_miss_latency::total 44707.898742                       # average ReadReq mshr miss latency
system.l2cache.WritebackDirty_hits::.writebacks        50706                       # number of WritebackDirty hits
system.l2cache.WritebackDirty_hits::total        50706                       # number of WritebackDirty hits
system.l2cache.WritebackDirty_accesses::.writebacks        50706                       # number of WritebackDirty accesses(hits+misses)
system.l2cache.WritebackDirty_accesses::total        50706                       # number of WritebackDirty accesses(hits+misses)
system.l2cache.power_state.pwrStateResidencyTicks::UNDEFINED  31896710000                       # Cumulative time (in ticks) in various power states
system.l2cache.tags.tagsinuse              510.981111                       # Cycle average of tags in use
system.l2cache.tags.total_refs                 298329                       # Total number of references to valid blocks.
system.l2cache.tags.sampled_refs               149579                       # Sample count of references to valid blocks.
system.l2cache.tags.avg_refs                 1.994458                       # Average number of references to valid blocks.
system.l2cache.tags.warmup_cycle                76000                       # Cycle when the warmup percentage was hit.
system.l2cache.tags.occ_blocks::.writebacks   118.484684                       # Average occupied blocks per requestor
system.l2cache.tags.occ_blocks::.cpu.inst   127.194006                       # Average occupied blocks per requestor
system.l2cache.tags.occ_blocks::.cpu.data   265.302420                       # Average occupied blocks per requestor
system.l2cache.tags.occ_percent::.writebacks     0.231415                       # Average percentage of cache occupancy
system.l2cache.tags.occ_percent::.cpu.inst     0.248426                       # Average percentage of cache occupancy
system.l2cache.tags.occ_percent::.cpu.data     0.518169                       # Average percentage of cache occupancy
system.l2cache.tags.occ_percent::total       0.998010                       # Average percentage of cache occupancy
system.l2cache.tags.occ_task_id_blocks::1024          512                       # Occupied blocks per task id
system.l2cache.tags.age_task_id_blocks_1024::1           18                       # Occupied blocks per task id
system.l2cache.tags.age_task_id_blocks_1024::2          441                       # Occupied blocks per task id
system.l2cache.tags.age_task_id_blocks_1024::3           53                       # Occupied blocks per task id
system.l2cache.tags.occ_task_id_percent::1024            1                       # Percentage of cache occupancy per task id
system.l2cache.tags.tag_accesses               447908                       # Number of tag accesses
system.l2cache.tags.data_accesses              447908                       # Number of data accesses
system.l2cache.tags.power_state.pwrStateResidencyTicks::UNDEFINED  31896710000                       # Cumulative time (in ticks) in various power states
system.l2bar.trans_dist::ReadReq               247623                       # Transaction distribution
system.l2bar.trans_dist::ReadResp              247623                       # Transaction distribution
system.l2bar.trans_dist::WritebackDirty         50706                       # Transaction distribution
system.l2bar.pkt_count_system.dcache.mem_side::system.l2cache.cpu_side       245058                       # Packet count per connected master and slave (bytes)
system.l2bar.pkt_count_system.icache.mem_side::system.l2cache.cpu_side       300894                       # Packet count per connected master and slave (bytes)
system.l2bar.pkt_count::total                  545952                       # Packet count per connected master and slave (bytes)
system.l2bar.pkt_size_system.dcache.mem_side::system.l2cache.cpu_side      9464448                       # Cumulative packet size per connected master and slave (bytes)
system.l2bar.pkt_size_system.icache.mem_side::system.l2cache.cpu_side      9628608                       # Cumulative packet size per connected master and slave (bytes)
system.l2bar.pkt_size::total                 19093056                       # Cumulative packet size per connected master and slave (bytes)
system.l2bar.respLayer1.occupancy           752235000                       # Layer occupancy (ticks)
system.l2bar.respLayer1.utilization               2.4                       # Layer utilization (%)
system.l2bar.reqLayer0.occupancy            501153000                       # Layer occupancy (ticks)
system.l2bar.reqLayer0.utilization                1.6                       # Layer utilization (%)
system.l2bar.respLayer0.occupancy           485880000                       # Layer occupancy (ticks)
system.l2bar.respLayer0.utilization               1.5                       # Layer utilization (%)
system.l2bar.power_state.pwrStateResidencyTicks::UNDEFINED  31896710000                       # Cumulative time (in ticks) in various power states
system.cpu.dtb.walker.power_state.pwrStateResidencyTicks::UNDEFINED  31896710000                       # Cumulative time (in ticks) in various power states
system.cpu.interrupts.clk_domain.clock          16000                       # Clock period in ticks
system.cpu.itb.walker.power_state.pwrStateResidencyTicks::UNDEFINED  31896710000                       # Cumulative time (in ticks) in various power states
system.cpu.power_state.numTransitions               1                       # Number of power state transitions
system.cpu.power_state.pwrStateResidencyTicks::ON  31896710000                       # Cumulative time (in ticks) in various power states

---------- End Simulation Statistics   ----------
