
---------- Begin Simulation Statistics ----------
final_tick                                 4274477000                       # Number of ticks from beginning of simulation (restored from checkpoints and never reset)
host_inst_rate                                  69801                       # Simulator instruction rate (inst/s)
host_mem_usage                               34242656                       # Number of bytes of host memory used
host_op_rate                                   155829                       # Simulator op (including micro ops) rate (op/s)
host_seconds                                    14.33                       # Real time elapsed on the host
host_tick_rate                              298354420                       # Simulator tick rate (ticks/s)
sim_freq                                 1000000000000                       # Frequency of simulated ticks
sim_insts                                     1000002                       # Number of instructions simulated
sim_ops                                       2232530                       # Number of ops (including micro ops) simulated
sim_seconds                                  0.004274                       # Number of seconds simulated
sim_ticks                                  4274477000                       # Number of ticks simulated
system.cpu.Branches                            216962                       # Number of branches fetched
system.cpu.committedInsts                     1000002                       # Number of instructions committed
system.cpu.committedOps                       2232530                       # Number of ops (including micro ops) committed
system.cpu.dtb.rdAccesses                      263485                       # TLB accesses on read requests
system.cpu.dtb.rdMisses                           105                       # TLB misses on read requests
system.cpu.dtb.wrAccesses                       79584                       # TLB accesses on write requests
system.cpu.dtb.wrMisses                           108                       # TLB misses on write requests
system.cpu.idle_fraction                            0                       # Percentage of idle cycles
system.cpu.itb.rdAccesses                           0                       # TLB accesses on read requests
system.cpu.itb.rdMisses                             0                       # TLB misses on read requests
system.cpu.itb.wrAccesses                     1370173                       # TLB accesses on write requests
system.cpu.itb.wrMisses                           419                       # TLB misses on write requests
system.cpu.not_idle_fraction                        1                       # Percentage of non-idle cycles
system.cpu.numCycles                          4274466                       # number of cpu cycles simulated
system.cpu.numWorkItemsCompleted                    0                       # number of work items this cpu completed
system.cpu.numWorkItemsStarted                      0                       # number of work items this cpu started
system.cpu.num_busy_cycles                    4274466                       # Number of busy cycles
system.cpu.num_cc_register_reads              1518798                       # number of times the CC registers were read
system.cpu.num_cc_register_writes              547151                       # number of times the CC registers were written
system.cpu.num_conditional_control_insts       156490                       # number of instructions that are conditional controls
system.cpu.num_fp_alu_accesses                 500168                       # Number of float alu accesses
system.cpu.num_fp_insts                        500168                       # number of float instructions
system.cpu.num_fp_register_reads               894107                       # number of times the floating registers were read
system.cpu.num_fp_register_writes              456038                       # number of times the floating registers were written
system.cpu.num_func_calls                       31544                       # number of times a function call or return occured
system.cpu.num_idle_cycles                          0                       # Number of idle cycles
system.cpu.num_int_alu_accesses               1832042                       # Number of integer alu accesses
system.cpu.num_int_insts                      1832042                       # number of integer instructions
system.cpu.num_int_register_reads             3506430                       # number of times the integer registers were read
system.cpu.num_int_register_writes            1456919                       # number of times the integer registers were written
system.cpu.num_load_insts                      263330                       # Number of load instructions
system.cpu.num_mem_refs                        342902                       # number of memory refs
system.cpu.num_store_insts                      79572                       # Number of store instructions
system.cpu.num_vec_alu_accesses                     0                       # Number of vector alu accesses
system.cpu.num_vec_insts                            0                       # number of vector instructions
system.cpu.num_vec_register_reads                   0                       # number of times the vector registers were read
system.cpu.num_vec_register_writes                  0                       # number of times the vector registers were written
system.cpu.op_class::No_OpClass                 38784      1.74%      1.74% # Class of executed instruction
system.cpu.op_class::IntAlu                   1545608     69.23%     70.97% # Class of executed instruction
system.cpu.op_class::IntMult                      327      0.01%     70.98% # Class of executed instruction
system.cpu.op_class::IntDiv                       861      0.04%     71.02% # Class of executed instruction
system.cpu.op_class::FloatAdd                    1833      0.08%     71.10% # Class of executed instruction
system.cpu.op_class::FloatCmp                       0      0.00%     71.10% # Class of executed instruction
system.cpu.op_class::FloatCvt                       0      0.00%     71.10% # Class of executed instruction
system.cpu.op_class::FloatMult                      0      0.00%     71.10% # Class of executed instruction
system.cpu.op_class::FloatMultAcc                   0      0.00%     71.10% # Class of executed instruction
system.cpu.op_class::FloatDiv                       0      0.00%     71.10% # Class of executed instruction
system.cpu.op_class::FloatMisc                      0      0.00%     71.10% # Class of executed instruction
system.cpu.op_class::FloatSqrt                      0      0.00%     71.10% # Class of executed instruction
system.cpu.op_class::SimdAdd                    18912      0.85%     71.95% # Class of executed instruction
system.cpu.op_class::SimdAddAcc                     0      0.00%     71.95% # Class of executed instruction
system.cpu.op_class::SimdAlu                   138067      6.18%     78.13% # Class of executed instruction
system.cpu.op_class::SimdCmp                       36      0.00%     78.14% # Class of executed instruction
system.cpu.op_class::SimdCvt                   115436      5.17%     83.31% # Class of executed instruction
system.cpu.op_class::SimdMisc                   23832      1.07%     84.37% # Class of executed instruction
system.cpu.op_class::SimdMult                       0      0.00%     84.37% # Class of executed instruction
system.cpu.op_class::SimdMultAcc                    0      0.00%     84.37% # Class of executed instruction
system.cpu.op_class::SimdShift                   4878      0.22%     84.59% # Class of executed instruction
system.cpu.op_class::SimdShiftAcc                   0      0.00%     84.59% # Class of executed instruction
system.cpu.op_class::SimdDiv                        0      0.00%     84.59% # Class of executed instruction
system.cpu.op_class::SimdSqrt                       0      0.00%     84.59% # Class of executed instruction
system.cpu.op_class::SimdFloatAdd                 152      0.01%     84.60% # Class of executed instruction
system.cpu.op_class::SimdFloatAlu                   0      0.00%     84.60% # Class of executed instruction
system.cpu.op_class::SimdFloatCmp                   0      0.00%     84.60% # Class of executed instruction
system.cpu.op_class::SimdFloatCvt                 725      0.03%     84.63% # Class of executed instruction
system.cpu.op_class::SimdFloatDiv                 104      0.00%     84.64% # Class of executed instruction
system.cpu.op_class::SimdFloatMisc                  0      0.00%     84.64% # Class of executed instruction
system.cpu.op_class::SimdFloatMult                104      0.00%     84.64% # Class of executed instruction
system.cpu.op_class::SimdFloatMultAcc               0      0.00%     84.64% # Class of executed instruction
system.cpu.op_class::SimdFloatSqrt                  0      0.00%     84.64% # Class of executed instruction
system.cpu.op_class::SimdReduceAdd                  0      0.00%     84.64% # Class of executed instruction
system.cpu.op_class::SimdReduceAlu                  0      0.00%     84.64% # Class of executed instruction
system.cpu.op_class::SimdReduceCmp                  0      0.00%     84.64% # Class of executed instruction
system.cpu.op_class::SimdFloatReduceAdd             0      0.00%     84.64% # Class of executed instruction
system.cpu.op_class::SimdFloatReduceCmp             0      0.00%     84.64% # Class of executed instruction
system.cpu.op_class::SimdAes                        0      0.00%     84.64% # Class of executed instruction
system.cpu.op_class::SimdAesMix                     0      0.00%     84.64% # Class of executed instruction
system.cpu.op_class::SimdSha1Hash                   0      0.00%     84.64% # Class of executed instruction
system.cpu.op_class::SimdSha1Hash2                  0      0.00%     84.64% # Class of executed instruction
system.cpu.op_class::SimdSha256Hash                 0      0.00%     84.64% # Class of executed instruction
system.cpu.op_class::SimdSha256Hash2                0      0.00%     84.64% # Class of executed instruction
system.cpu.op_class::SimdShaSigma2                  0      0.00%     84.64% # Class of executed instruction
system.cpu.op_class::SimdShaSigma3                  0      0.00%     84.64% # Class of executed instruction
system.cpu.op_class::SimdPredAlu                    0      0.00%     84.64% # Class of executed instruction
system.cpu.op_class::MemRead                   166961      7.48%     92.12% # Class of executed instruction
system.cpu.op_class::MemWrite                   56348      2.52%     94.64% # Class of executed instruction
system.cpu.op_class::FloatMemRead               96369      4.32%     98.96% # Class of executed instruction
system.cpu.op_class::FloatMemWrite              23224      1.04%    100.00% # Class of executed instruction
system.cpu.op_class::IprAccess                      0      0.00%    100.00% # Class of executed instruction
system.cpu.op_class::InstPrefetch                   0      0.00%    100.00% # Class of executed instruction
system.cpu.op_class::total                    2232561                       # Class of executed instruction
system.cpu.workload.numSyscalls                    62                       # Number of system calls
system.dynamic_cache.flushTicks                     0                       # Ticks taken to flush
system.dynamic_cache.numFlushes                     0                       # Number of Flushes Taken
system.cache_small.demand_hits::.cpu.inst         4987                       # number of demand (read+write) hits
system.cache_small.demand_hits::.cpu.data         7154                       # number of demand (read+write) hits
system.cache_small.demand_hits::total           12141                       # number of demand (read+write) hits
system.cache_small.overall_hits::.cpu.inst         4987                       # number of overall hits
system.cache_small.overall_hits::.cpu.data         7154                       # number of overall hits
system.cache_small.overall_hits::total          12141                       # number of overall hits
system.cache_small.demand_misses::.cpu.inst         2893                       # number of demand (read+write) misses
system.cache_small.demand_misses::.cpu.data         3224                       # number of demand (read+write) misses
system.cache_small.demand_misses::total          6117                       # number of demand (read+write) misses
system.cache_small.overall_misses::.cpu.inst         2893                       # number of overall misses
system.cache_small.overall_misses::.cpu.data         3224                       # number of overall misses
system.cache_small.overall_misses::total         6117                       # number of overall misses
system.cache_small.demand_miss_latency::.cpu.inst    184008000                       # number of demand (read+write) miss cycles
system.cache_small.demand_miss_latency::.cpu.data    190171000                       # number of demand (read+write) miss cycles
system.cache_small.demand_miss_latency::total    374179000                       # number of demand (read+write) miss cycles
system.cache_small.overall_miss_latency::.cpu.inst    184008000                       # number of overall miss cycles
system.cache_small.overall_miss_latency::.cpu.data    190171000                       # number of overall miss cycles
system.cache_small.overall_miss_latency::total    374179000                       # number of overall miss cycles
system.cache_small.demand_accesses::.cpu.inst         7880                       # number of demand (read+write) accesses
system.cache_small.demand_accesses::.cpu.data        10378                       # number of demand (read+write) accesses
system.cache_small.demand_accesses::total        18258                       # number of demand (read+write) accesses
system.cache_small.overall_accesses::.cpu.inst         7880                       # number of overall (read+write) accesses
system.cache_small.overall_accesses::.cpu.data        10378                       # number of overall (read+write) accesses
system.cache_small.overall_accesses::total        18258                       # number of overall (read+write) accesses
system.cache_small.demand_miss_rate::.cpu.inst     0.367132                       # miss rate for demand accesses
system.cache_small.demand_miss_rate::.cpu.data     0.310657                       # miss rate for demand accesses
system.cache_small.demand_miss_rate::total     0.335031                       # miss rate for demand accesses
system.cache_small.overall_miss_rate::.cpu.inst     0.367132                       # miss rate for overall accesses
system.cache_small.overall_miss_rate::.cpu.data     0.310657                       # miss rate for overall accesses
system.cache_small.overall_miss_rate::total     0.335031                       # miss rate for overall accesses
system.cache_small.demand_avg_miss_latency::.cpu.inst 63604.562738                       # average overall miss latency
system.cache_small.demand_avg_miss_latency::.cpu.data 58986.042184                       # average overall miss latency
system.cache_small.demand_avg_miss_latency::total 61170.344940                       # average overall miss latency
system.cache_small.overall_avg_miss_latency::.cpu.inst 63604.562738                       # average overall miss latency
system.cache_small.overall_avg_miss_latency::.cpu.data 58986.042184                       # average overall miss latency
system.cache_small.overall_avg_miss_latency::total 61170.344940                       # average overall miss latency
system.cache_small.blocked_cycles::no_mshrs            0                       # number of cycles access was blocked
system.cache_small.blocked_cycles::no_targets            0                       # number of cycles access was blocked
system.cache_small.blocked::no_mshrs                0                       # number of cycles access was blocked
system.cache_small.blocked::no_targets              0                       # number of cycles access was blocked
system.cache_small.avg_blocked_cycles::no_mshrs          nan                       # average number of cycles each access was blocked
system.cache_small.avg_blocked_cycles::no_targets          nan                       # average number of cycles each access was blocked
system.cache_small.writebacks::.writebacks         1035                       # number of writebacks
system.cache_small.writebacks::total             1035                       # number of writebacks
system.cache_small.demand_mshr_misses::.cpu.inst         2893                       # number of demand (read+write) MSHR misses
system.cache_small.demand_mshr_misses::.cpu.data         3224                       # number of demand (read+write) MSHR misses
system.cache_small.demand_mshr_misses::total         6117                       # number of demand (read+write) MSHR misses
system.cache_small.overall_mshr_misses::.cpu.inst         2893                       # number of overall MSHR misses
system.cache_small.overall_mshr_misses::.cpu.data         3224                       # number of overall MSHR misses
system.cache_small.overall_mshr_misses::total         6117                       # number of overall MSHR misses
system.cache_small.demand_mshr_miss_latency::.cpu.inst    178222000                       # number of demand (read+write) MSHR miss cycles
system.cache_small.demand_mshr_miss_latency::.cpu.data    183723000                       # number of demand (read+write) MSHR miss cycles
system.cache_small.demand_mshr_miss_latency::total    361945000                       # number of demand (read+write) MSHR miss cycles
system.cache_small.overall_mshr_miss_latency::.cpu.inst    178222000                       # number of overall MSHR miss cycles
system.cache_small.overall_mshr_miss_latency::.cpu.data    183723000                       # number of overall MSHR miss cycles
system.cache_small.overall_mshr_miss_latency::total    361945000                       # number of overall MSHR miss cycles
system.cache_small.demand_mshr_miss_rate::.cpu.inst     0.367132                       # mshr miss rate for demand accesses
system.cache_small.demand_mshr_miss_rate::.cpu.data     0.310657                       # mshr miss rate for demand accesses
system.cache_small.demand_mshr_miss_rate::total     0.335031                       # mshr miss rate for demand accesses
system.cache_small.overall_mshr_miss_rate::.cpu.inst     0.367132                       # mshr miss rate for overall accesses
system.cache_small.overall_mshr_miss_rate::.cpu.data     0.310657                       # mshr miss rate for overall accesses
system.cache_small.overall_mshr_miss_rate::total     0.335031                       # mshr miss rate for overall accesses
system.cache_small.demand_avg_mshr_miss_latency::.cpu.inst 61604.562738                       # average overall mshr miss latency
system.cache_small.demand_avg_mshr_miss_latency::.cpu.data 56986.042184                       # average overall mshr miss latency
system.cache_small.demand_avg_mshr_miss_latency::total 59170.344940                       # average overall mshr miss latency
system.cache_small.overall_avg_mshr_miss_latency::.cpu.inst 61604.562738                       # average overall mshr miss latency
system.cache_small.overall_avg_mshr_miss_latency::.cpu.data 56986.042184                       # average overall mshr miss latency
system.cache_small.overall_avg_mshr_miss_latency::total 59170.344940                       # average overall mshr miss latency
system.cache_small.replacements                  4005                       # number of replacements
system.cache_small.ReadReq_hits::.cpu.inst         4987                       # number of ReadReq hits
system.cache_small.ReadReq_hits::.cpu.data         7154                       # number of ReadReq hits
system.cache_small.ReadReq_hits::total          12141                       # number of ReadReq hits
system.cache_small.ReadReq_misses::.cpu.inst         2893                       # number of ReadReq misses
system.cache_small.ReadReq_misses::.cpu.data         3224                       # number of ReadReq misses
system.cache_small.ReadReq_misses::total         6117                       # number of ReadReq misses
system.cache_small.ReadReq_miss_latency::.cpu.inst    184008000                       # number of ReadReq miss cycles
system.cache_small.ReadReq_miss_latency::.cpu.data    190171000                       # number of ReadReq miss cycles
system.cache_small.ReadReq_miss_latency::total    374179000                       # number of ReadReq miss cycles
system.cache_small.ReadReq_accesses::.cpu.inst         7880                       # number of ReadReq accesses(hits+misses)
system.cache_small.ReadReq_accesses::.cpu.data        10378                       # number of ReadReq accesses(hits+misses)
system.cache_small.ReadReq_accesses::total        18258                       # number of ReadReq accesses(hits+misses)
system.cache_small.ReadReq_miss_rate::.cpu.inst     0.367132                       # miss rate for ReadReq accesses
system.cache_small.ReadReq_miss_rate::.cpu.data     0.310657                       # miss rate for ReadReq accesses
system.cache_small.ReadReq_miss_rate::total     0.335031                       # miss rate for ReadReq accesses
system.cache_small.ReadReq_avg_miss_latency::.cpu.inst 63604.562738                       # average ReadReq miss latency
system.cache_small.ReadReq_avg_miss_latency::.cpu.data 58986.042184                       # average ReadReq miss latency
system.cache_small.ReadReq_avg_miss_latency::total 61170.344940                       # average ReadReq miss latency
system.cache_small.ReadReq_mshr_misses::.cpu.inst         2893                       # number of ReadReq MSHR misses
system.cache_small.ReadReq_mshr_misses::.cpu.data         3224                       # number of ReadReq MSHR misses
system.cache_small.ReadReq_mshr_misses::total         6117                       # number of ReadReq MSHR misses
system.cache_small.ReadReq_mshr_miss_latency::.cpu.inst    178222000                       # number of ReadReq MSHR miss cycles
system.cache_small.ReadReq_mshr_miss_latency::.cpu.data    183723000                       # number of ReadReq MSHR miss cycles
system.cache_small.ReadReq_mshr_miss_latency::total    361945000                       # number of ReadReq MSHR miss cycles
system.cache_small.ReadReq_mshr_miss_rate::.cpu.inst     0.367132                       # mshr miss rate for ReadReq accesses
system.cache_small.ReadReq_mshr_miss_rate::.cpu.data     0.310657                       # mshr miss rate for ReadReq accesses
system.cache_small.ReadReq_mshr_miss_rate::total     0.335031                       # mshr miss rate for ReadReq accesses
system.cache_small.ReadReq_avg_mshr_miss_latency::.cpu.inst 61604.562738                       # average ReadReq mshr miss latency
system.cache_small.ReadReq_avg_mshr_miss_latency::.cpu.data 56986.042184                       # average ReadReq mshr miss latency
system.cache_small.ReadReq_avg_mshr_miss_latency::total 59170.344940                       # average ReadReq mshr miss latency
system.cache_small.WritebackDirty_hits::.writebacks         4389                       # number of WritebackDirty hits
system.cache_small.WritebackDirty_hits::total         4389                       # number of WritebackDirty hits
system.cache_small.WritebackDirty_accesses::.writebacks         4389                       # number of WritebackDirty accesses(hits+misses)
system.cache_small.WritebackDirty_accesses::total         4389                       # number of WritebackDirty accesses(hits+misses)
system.cache_small.power_state.pwrStateResidencyTicks::UNDEFINED   4274477000                       # Cumulative time (in ticks) in various power states
system.cache_small.tags.tagsinuse         2055.524696                       # Cycle average of tags in use
system.cache_small.tags.total_refs               7213                       # Total number of references to valid blocks.
system.cache_small.tags.sampled_refs             4005                       # Sample count of references to valid blocks.
system.cache_small.tags.avg_refs             1.800999                       # Average number of references to valid blocks.
system.cache_small.tags.warmup_cycle            76000                       # Cycle when the warmup percentage was hit.
system.cache_small.tags.occ_blocks::.writebacks    63.409981                       # Average occupied blocks per requestor
system.cache_small.tags.occ_blocks::.cpu.inst   790.354825                       # Average occupied blocks per requestor
system.cache_small.tags.occ_blocks::.cpu.data  1201.759891                       # Average occupied blocks per requestor
system.cache_small.tags.occ_percent::.writebacks     0.015481                       # Average percentage of cache occupancy
system.cache_small.tags.occ_percent::.cpu.inst     0.192958                       # Average percentage of cache occupancy
system.cache_small.tags.occ_percent::.cpu.data     0.293398                       # Average percentage of cache occupancy
system.cache_small.tags.occ_percent::total     0.501837                       # Average percentage of cache occupancy
system.cache_small.tags.occ_task_id_blocks::1024         2756                       # Occupied blocks per task id
system.cache_small.tags.age_task_id_blocks_1024::0           26                       # Occupied blocks per task id
system.cache_small.tags.age_task_id_blocks_1024::1           96                       # Occupied blocks per task id
system.cache_small.tags.age_task_id_blocks_1024::2          441                       # Occupied blocks per task id
system.cache_small.tags.age_task_id_blocks_1024::3         2193                       # Occupied blocks per task id
system.cache_small.tags.occ_task_id_percent::1024     0.672852                       # Percentage of cache occupancy per task id
system.cache_small.tags.tag_accesses            29408                       # Number of tag accesses
system.cache_small.tags.data_accesses           29408                       # Number of data accesses
system.cache_small.tags.power_state.pwrStateResidencyTicks::UNDEFINED   4274477000                       # Cumulative time (in ticks) in various power states
system.icache.demand_hits::.cpu.inst          1356280                       # number of demand (read+write) hits
system.icache.demand_hits::total              1356280                       # number of demand (read+write) hits
system.icache.overall_hits::.cpu.inst         1356280                       # number of overall hits
system.icache.overall_hits::total             1356280                       # number of overall hits
system.icache.demand_misses::.cpu.inst          13893                       # number of demand (read+write) misses
system.icache.demand_misses::total              13893                       # number of demand (read+write) misses
system.icache.overall_misses::.cpu.inst         13893                       # number of overall misses
system.icache.overall_misses::total             13893                       # number of overall misses
system.icache.demand_miss_latency::.cpu.inst    418732000                       # number of demand (read+write) miss cycles
system.icache.demand_miss_latency::total    418732000                       # number of demand (read+write) miss cycles
system.icache.overall_miss_latency::.cpu.inst    418732000                       # number of overall miss cycles
system.icache.overall_miss_latency::total    418732000                       # number of overall miss cycles
system.icache.demand_accesses::.cpu.inst      1370173                       # number of demand (read+write) accesses
system.icache.demand_accesses::total          1370173                       # number of demand (read+write) accesses
system.icache.overall_accesses::.cpu.inst      1370173                       # number of overall (read+write) accesses
system.icache.overall_accesses::total         1370173                       # number of overall (read+write) accesses
system.icache.demand_miss_rate::.cpu.inst     0.010140                       # miss rate for demand accesses
system.icache.demand_miss_rate::total        0.010140                       # miss rate for demand accesses
system.icache.overall_miss_rate::.cpu.inst     0.010140                       # miss rate for overall accesses
system.icache.overall_miss_rate::total       0.010140                       # miss rate for overall accesses
system.icache.demand_avg_miss_latency::.cpu.inst 30139.782624                       # average overall miss latency
system.icache.demand_avg_miss_latency::total 30139.782624                       # average overall miss latency
system.icache.overall_avg_miss_latency::.cpu.inst 30139.782624                       # average overall miss latency
system.icache.overall_avg_miss_latency::total 30139.782624                       # average overall miss latency
system.icache.blocked_cycles::no_mshrs              0                       # number of cycles access was blocked
system.icache.blocked_cycles::no_targets            0                       # number of cycles access was blocked
system.icache.blocked::no_mshrs                     0                       # number of cycles access was blocked
system.icache.blocked::no_targets                   0                       # number of cycles access was blocked
system.icache.avg_blocked_cycles::no_mshrs          nan                       # average number of cycles each access was blocked
system.icache.avg_blocked_cycles::no_targets          nan                       # average number of cycles each access was blocked
system.icache.demand_mshr_misses::.cpu.inst        13893                       # number of demand (read+write) MSHR misses
system.icache.demand_mshr_misses::total         13893                       # number of demand (read+write) MSHR misses
system.icache.overall_mshr_misses::.cpu.inst        13893                       # number of overall MSHR misses
system.icache.overall_mshr_misses::total        13893                       # number of overall MSHR misses
system.icache.demand_mshr_miss_latency::.cpu.inst    390946000                       # number of demand (read+write) MSHR miss cycles
system.icache.demand_mshr_miss_latency::total    390946000                       # number of demand (read+write) MSHR miss cycles
system.icache.overall_mshr_miss_latency::.cpu.inst    390946000                       # number of overall MSHR miss cycles
system.icache.overall_mshr_miss_latency::total    390946000                       # number of overall MSHR miss cycles
system.icache.demand_mshr_miss_rate::.cpu.inst     0.010140                       # mshr miss rate for demand accesses
system.icache.demand_mshr_miss_rate::total     0.010140                       # mshr miss rate for demand accesses
system.icache.overall_mshr_miss_rate::.cpu.inst     0.010140                       # mshr miss rate for overall accesses
system.icache.overall_mshr_miss_rate::total     0.010140                       # mshr miss rate for overall accesses
system.icache.demand_avg_mshr_miss_latency::.cpu.inst 28139.782624                       # average overall mshr miss latency
system.icache.demand_avg_mshr_miss_latency::total 28139.782624                       # average overall mshr miss latency
system.icache.overall_avg_mshr_miss_latency::.cpu.inst 28139.782624                       # average overall mshr miss latency
system.icache.overall_avg_mshr_miss_latency::total 28139.782624                       # average overall mshr miss latency
system.icache.replacements                      13637                       # number of replacements
system.icache.ReadReq_hits::.cpu.inst         1356280                       # number of ReadReq hits
system.icache.ReadReq_hits::total             1356280                       # number of ReadReq hits
system.icache.ReadReq_misses::.cpu.inst         13893                       # number of ReadReq misses
system.icache.ReadReq_misses::total             13893                       # number of ReadReq misses
system.icache.ReadReq_miss_latency::.cpu.inst    418732000                       # number of ReadReq miss cycles
system.icache.ReadReq_miss_latency::total    418732000                       # number of ReadReq miss cycles
system.icache.ReadReq_accesses::.cpu.inst      1370173                       # number of ReadReq accesses(hits+misses)
system.icache.ReadReq_accesses::total         1370173                       # number of ReadReq accesses(hits+misses)
system.icache.ReadReq_miss_rate::.cpu.inst     0.010140                       # miss rate for ReadReq accesses
system.icache.ReadReq_miss_rate::total       0.010140                       # miss rate for ReadReq accesses
system.icache.ReadReq_avg_miss_latency::.cpu.inst 30139.782624                       # average ReadReq miss latency
system.icache.ReadReq_avg_miss_latency::total 30139.782624                       # average ReadReq miss latency
system.icache.ReadReq_mshr_misses::.cpu.inst        13893                       # number of ReadReq MSHR misses
system.icache.ReadReq_mshr_misses::total        13893                       # number of ReadReq MSHR misses
system.icache.ReadReq_mshr_miss_latency::.cpu.inst    390946000                       # number of ReadReq MSHR miss cycles
system.icache.ReadReq_mshr_miss_latency::total    390946000                       # number of ReadReq MSHR miss cycles
system.icache.ReadReq_mshr_miss_rate::.cpu.inst     0.010140                       # mshr miss rate for ReadReq accesses
system.icache.ReadReq_mshr_miss_rate::total     0.010140                       # mshr miss rate for ReadReq accesses
system.icache.ReadReq_avg_mshr_miss_latency::.cpu.inst 28139.782624                       # average ReadReq mshr miss latency
system.icache.ReadReq_avg_mshr_miss_latency::total 28139.782624                       # average ReadReq mshr miss latency
system.icache.power_state.pwrStateResidencyTicks::UNDEFINED   4274477000                       # Cumulative time (in ticks) in various power states
system.icache.tags.tagsinuse               252.268365                       # Cycle average of tags in use
system.icache.tags.total_refs                 1335370                       # Total number of references to valid blocks.
system.icache.tags.sampled_refs                 13637                       # Sample count of references to valid blocks.
system.icache.tags.avg_refs                 97.922564                       # Average number of references to valid blocks.
system.icache.tags.warmup_cycle                 82000                       # Cycle when the warmup percentage was hit.
system.icache.tags.occ_blocks::.cpu.inst   252.268365                       # Average occupied blocks per requestor
system.icache.tags.occ_percent::.cpu.inst     0.985423                       # Average percentage of cache occupancy
system.icache.tags.occ_percent::total        0.985423                       # Average percentage of cache occupancy
system.icache.tags.occ_task_id_blocks::1024          256                       # Occupied blocks per task id
system.icache.tags.age_task_id_blocks_1024::0            8                       # Occupied blocks per task id
system.icache.tags.age_task_id_blocks_1024::1          167                       # Occupied blocks per task id
system.icache.tags.age_task_id_blocks_1024::2           52                       # Occupied blocks per task id
system.icache.tags.age_task_id_blocks_1024::3           29                       # Occupied blocks per task id
system.icache.tags.occ_task_id_percent::1024            1                       # Percentage of cache occupancy per task id
system.icache.tags.tag_accesses               1384066                       # Number of tag accesses
system.icache.tags.data_accesses              1384066                       # Number of data accesses
system.icache.tags.power_state.pwrStateResidencyTicks::UNDEFINED   4274477000                       # Cumulative time (in ticks) in various power states
system.membus.trans_dist::ReadReq                6117                       # Transaction distribution
system.membus.trans_dist::ReadResp               6117                       # Transaction distribution
system.membus.trans_dist::WritebackDirty         1035                       # Transaction distribution
system.membus.pkt_count_system.cache_small.mem_side::system.mem_ctrl.port        13269                       # Packet count per connected master and slave (bytes)
system.membus.pkt_count_system.cache_small.mem_side::total        13269                       # Packet count per connected master and slave (bytes)
system.membus.pkt_count::total                  13269                       # Packet count per connected master and slave (bytes)
system.membus.pkt_size_system.cache_small.mem_side::system.mem_ctrl.port       457728                       # Cumulative packet size per connected master and slave (bytes)
system.membus.pkt_size_system.cache_small.mem_side::total       457728                       # Cumulative packet size per connected master and slave (bytes)
system.membus.pkt_size::total                  457728                       # Cumulative packet size per connected master and slave (bytes)
system.membus.reqLayer2.occupancy            11292000                       # Layer occupancy (ticks)
system.membus.reqLayer2.utilization               0.3                       # Layer utilization (%)
system.membus.respLayer1.occupancy           32696250                       # Layer occupancy (ticks)
system.membus.respLayer1.utilization              0.8                       # Layer utilization (%)
system.membus.power_state.pwrStateResidencyTicks::UNDEFINED   4274477000                       # Cumulative time (in ticks) in various power states
system.mem_ctrl.bytes_read::.cpu.inst          185152                       # Number of bytes read from this memory
system.mem_ctrl.bytes_read::.cpu.data          206336                       # Number of bytes read from this memory
system.mem_ctrl.bytes_read::total              391488                       # Number of bytes read from this memory
system.mem_ctrl.bytes_inst_read::.cpu.inst       185152                       # Number of instructions bytes read from this memory
system.mem_ctrl.bytes_inst_read::total         185152                       # Number of instructions bytes read from this memory
system.mem_ctrl.bytes_written::.writebacks        66240                       # Number of bytes written to this memory
system.mem_ctrl.bytes_written::total            66240                       # Number of bytes written to this memory
system.mem_ctrl.num_reads::.cpu.inst             2893                       # Number of read requests responded to by this memory
system.mem_ctrl.num_reads::.cpu.data             3224                       # Number of read requests responded to by this memory
system.mem_ctrl.num_reads::total                 6117                       # Number of read requests responded to by this memory
system.mem_ctrl.num_writes::.writebacks          1035                       # Number of write requests responded to by this memory
system.mem_ctrl.num_writes::total                1035                       # Number of write requests responded to by this memory
system.mem_ctrl.bw_read::.cpu.inst           43315709                       # Total read bandwidth from this memory (bytes/s)
system.mem_ctrl.bw_read::.cpu.data           48271637                       # Total read bandwidth from this memory (bytes/s)
system.mem_ctrl.bw_read::total               91587345                       # Total read bandwidth from this memory (bytes/s)
system.mem_ctrl.bw_inst_read::.cpu.inst      43315709                       # Instruction read bandwidth from this memory (bytes/s)
system.mem_ctrl.bw_inst_read::total          43315709                       # Instruction read bandwidth from this memory (bytes/s)
system.mem_ctrl.bw_write::.writebacks        15496633                       # Write bandwidth from this memory (bytes/s)
system.mem_ctrl.bw_write::total              15496633                       # Write bandwidth from this memory (bytes/s)
system.mem_ctrl.bw_total::.writebacks        15496633                       # Total bandwidth to/from this memory (bytes/s)
system.mem_ctrl.bw_total::.cpu.inst          43315709                       # Total bandwidth to/from this memory (bytes/s)
system.mem_ctrl.bw_total::.cpu.data          48271637                       # Total bandwidth to/from this memory (bytes/s)
system.mem_ctrl.bw_total::total             107083978                       # Total bandwidth to/from this memory (bytes/s)
system.mem_ctrl.avgPriority_.writebacks::samples       863.00                       # Average QoS priority value for accepted requests
system.mem_ctrl.avgPriority_.cpu.inst::samples      2893.00                       # Average QoS priority value for accepted requests
system.mem_ctrl.avgPriority_.cpu.data::samples      3106.00                       # Average QoS priority value for accepted requests
system.mem_ctrl.priorityMinLatency       0.000000018750                       # per QoS priority minimum request to response latency (s)
system.mem_ctrl.priorityMaxLatency       0.004338659750                       # per QoS priority maximum request to response latency (s)
system.mem_ctrl.numReadWriteTurnArounds            48                       # Number of turnarounds from READ to WRITE
system.mem_ctrl.numWriteReadTurnArounds            48                       # Number of turnarounds from WRITE to READ
system.mem_ctrl.numStayReadState                14113                       # Number of times bus staying in READ state
system.mem_ctrl.numStayWriteState                 791                       # Number of times bus staying in WRITE state
system.mem_ctrl.readReqs                         6117                       # Number of read requests accepted
system.mem_ctrl.writeReqs                        1035                       # Number of write requests accepted
system.mem_ctrl.readBursts                       6117                       # Number of DRAM read bursts, including those serviced by the write queue
system.mem_ctrl.writeBursts                      1035                       # Number of DRAM write bursts, including those merged in the write queue
system.mem_ctrl.servicedByWrQ                     118                       # Number of DRAM read bursts serviced by the write queue
system.mem_ctrl.mergedWrBursts                    172                       # Number of DRAM write bursts merged with an existing one
system.mem_ctrl.neitherReadNorWriteReqs             0                       # Number of requests that are neither read nor write
system.mem_ctrl.perBankRdBursts::0                478                       # Per bank write bursts
system.mem_ctrl.perBankRdBursts::1                882                       # Per bank write bursts
system.mem_ctrl.perBankRdBursts::2                407                       # Per bank write bursts
system.mem_ctrl.perBankRdBursts::3                412                       # Per bank write bursts
system.mem_ctrl.perBankRdBursts::4                152                       # Per bank write bursts
system.mem_ctrl.perBankRdBursts::5                147                       # Per bank write bursts
system.mem_ctrl.perBankRdBursts::6                285                       # Per bank write bursts
system.mem_ctrl.perBankRdBursts::7                519                       # Per bank write bursts
system.mem_ctrl.perBankRdBursts::8                497                       # Per bank write bursts
system.mem_ctrl.perBankRdBursts::9                500                       # Per bank write bursts
system.mem_ctrl.perBankRdBursts::10               283                       # Per bank write bursts
system.mem_ctrl.perBankRdBursts::11               452                       # Per bank write bursts
system.mem_ctrl.perBankRdBursts::12               271                       # Per bank write bursts
system.mem_ctrl.perBankRdBursts::13               183                       # Per bank write bursts
system.mem_ctrl.perBankRdBursts::14                97                       # Per bank write bursts
system.mem_ctrl.perBankRdBursts::15               434                       # Per bank write bursts
system.mem_ctrl.perBankWrBursts::0                 32                       # Per bank write bursts
system.mem_ctrl.perBankWrBursts::1                127                       # Per bank write bursts
system.mem_ctrl.perBankWrBursts::2                 26                       # Per bank write bursts
system.mem_ctrl.perBankWrBursts::3                 56                       # Per bank write bursts
system.mem_ctrl.perBankWrBursts::4                  6                       # Per bank write bursts
system.mem_ctrl.perBankWrBursts::5                 10                       # Per bank write bursts
system.mem_ctrl.perBankWrBursts::6                 42                       # Per bank write bursts
system.mem_ctrl.perBankWrBursts::7                131                       # Per bank write bursts
system.mem_ctrl.perBankWrBursts::8                 96                       # Per bank write bursts
system.mem_ctrl.perBankWrBursts::9                 58                       # Per bank write bursts
system.mem_ctrl.perBankWrBursts::10                55                       # Per bank write bursts
system.mem_ctrl.perBankWrBursts::11               110                       # Per bank write bursts
system.mem_ctrl.perBankWrBursts::12                14                       # Per bank write bursts
system.mem_ctrl.perBankWrBursts::13                13                       # Per bank write bursts
system.mem_ctrl.perBankWrBursts::14                20                       # Per bank write bursts
system.mem_ctrl.perBankWrBursts::15                43                       # Per bank write bursts
system.mem_ctrl.avgRdQLen                        1.00                       # Average read queue length when enqueuing
system.mem_ctrl.avgWrQLen                       23.05                       # Average write queue length when enqueuing
system.mem_ctrl.totQLat                      58903250                       # Total ticks spent queuing
system.mem_ctrl.totBusLat                    29995000                       # Total ticks spent in databus transfers
system.mem_ctrl.totMemAccLat                171384500                       # Total ticks spent from burst creation until serviced by the DRAM
system.mem_ctrl.avgQLat                       9818.84                       # Average queueing delay per DRAM burst
system.mem_ctrl.avgBusLat                     5000.00                       # Average bus latency per DRAM burst
system.mem_ctrl.avgMemAccLat                 28568.84                       # Average memory access latency per DRAM burst
system.mem_ctrl.numRdRetry                          0                       # Number of times read queue was full causing retry
system.mem_ctrl.numWrRetry                          0                       # Number of times write queue was full causing retry
system.mem_ctrl.readRowHits                      4017                       # Number of row buffer hits during reads
system.mem_ctrl.writeRowHits                      665                       # Number of row buffer hits during writes
system.mem_ctrl.readRowHitRate                  66.96                       # Row buffer hit rate for reads
system.mem_ctrl.writeRowHitRate                 77.06                       # Row buffer hit rate for writes
system.mem_ctrl.readPktSize::0                      0                       # Read request sizes (log2)
system.mem_ctrl.readPktSize::1                      0                       # Read request sizes (log2)
system.mem_ctrl.readPktSize::2                      0                       # Read request sizes (log2)
system.mem_ctrl.readPktSize::3                      0                       # Read request sizes (log2)
system.mem_ctrl.readPktSize::4                      0                       # Read request sizes (log2)
system.mem_ctrl.readPktSize::5                      0                       # Read request sizes (log2)
system.mem_ctrl.readPktSize::6                   6117                       # Read request sizes (log2)
system.mem_ctrl.writePktSize::0                     0                       # Write request sizes (log2)
system.mem_ctrl.writePktSize::1                     0                       # Write request sizes (log2)
system.mem_ctrl.writePktSize::2                     0                       # Write request sizes (log2)
system.mem_ctrl.writePktSize::3                     0                       # Write request sizes (log2)
system.mem_ctrl.writePktSize::4                     0                       # Write request sizes (log2)
system.mem_ctrl.writePktSize::5                     0                       # Write request sizes (log2)
system.mem_ctrl.writePktSize::6                  1035                       # Write request sizes (log2)
system.mem_ctrl.rdQLenPdf::0                     5995                       # What read queue length does an incoming req see
system.mem_ctrl.rdQLenPdf::1                        4                       # What read queue length does an incoming req see
system.mem_ctrl.rdQLenPdf::2                        0                       # What read queue length does an incoming req see
system.mem_ctrl.rdQLenPdf::3                        0                       # What read queue length does an incoming req see
system.mem_ctrl.rdQLenPdf::4                        0                       # What read queue length does an incoming req see
system.mem_ctrl.rdQLenPdf::5                        0                       # What read queue length does an incoming req see
system.mem_ctrl.rdQLenPdf::6                        0                       # What read queue length does an incoming req see
system.mem_ctrl.rdQLenPdf::7                        0                       # What read queue length does an incoming req see
system.mem_ctrl.rdQLenPdf::8                        0                       # What read queue length does an incoming req see
system.mem_ctrl.rdQLenPdf::9                        0                       # What read queue length does an incoming req see
system.mem_ctrl.rdQLenPdf::10                       0                       # What read queue length does an incoming req see
system.mem_ctrl.rdQLenPdf::11                       0                       # What read queue length does an incoming req see
system.mem_ctrl.rdQLenPdf::12                       0                       # What read queue length does an incoming req see
system.mem_ctrl.rdQLenPdf::13                       0                       # What read queue length does an incoming req see
system.mem_ctrl.rdQLenPdf::14                       0                       # What read queue length does an incoming req see
system.mem_ctrl.rdQLenPdf::15                       0                       # What read queue length does an incoming req see
system.mem_ctrl.rdQLenPdf::16                       0                       # What read queue length does an incoming req see
system.mem_ctrl.rdQLenPdf::17                       0                       # What read queue length does an incoming req see
system.mem_ctrl.rdQLenPdf::18                       0                       # What read queue length does an incoming req see
system.mem_ctrl.rdQLenPdf::19                       0                       # What read queue length does an incoming req see
system.mem_ctrl.rdQLenPdf::20                       0                       # What read queue length does an incoming req see
system.mem_ctrl.rdQLenPdf::21                       0                       # What read queue length does an incoming req see
system.mem_ctrl.rdQLenPdf::22                       0                       # What read queue length does an incoming req see
system.mem_ctrl.rdQLenPdf::23                       0                       # What read queue length does an incoming req see
system.mem_ctrl.rdQLenPdf::24                       0                       # What read queue length does an incoming req see
system.mem_ctrl.rdQLenPdf::25                       0                       # What read queue length does an incoming req see
system.mem_ctrl.rdQLenPdf::26                       0                       # What read queue length does an incoming req see
system.mem_ctrl.rdQLenPdf::27                       0                       # What read queue length does an incoming req see
system.mem_ctrl.rdQLenPdf::28                       0                       # What read queue length does an incoming req see
system.mem_ctrl.rdQLenPdf::29                       0                       # What read queue length does an incoming req see
system.mem_ctrl.rdQLenPdf::30                       0                       # What read queue length does an incoming req see
system.mem_ctrl.rdQLenPdf::31                       0                       # What read queue length does an incoming req see
system.mem_ctrl.wrQLenPdf::0                        1                       # What write queue length does an incoming req see
system.mem_ctrl.wrQLenPdf::1                        1                       # What write queue length does an incoming req see
system.mem_ctrl.wrQLenPdf::2                        1                       # What write queue length does an incoming req see
system.mem_ctrl.wrQLenPdf::3                        1                       # What write queue length does an incoming req see
system.mem_ctrl.wrQLenPdf::4                        1                       # What write queue length does an incoming req see
system.mem_ctrl.wrQLenPdf::5                        1                       # What write queue length does an incoming req see
system.mem_ctrl.wrQLenPdf::6                        1                       # What write queue length does an incoming req see
system.mem_ctrl.wrQLenPdf::7                        1                       # What write queue length does an incoming req see
system.mem_ctrl.wrQLenPdf::8                        1                       # What write queue length does an incoming req see
system.mem_ctrl.wrQLenPdf::9                        1                       # What write queue length does an incoming req see
system.mem_ctrl.wrQLenPdf::10                       1                       # What write queue length does an incoming req see
system.mem_ctrl.wrQLenPdf::11                       1                       # What write queue length does an incoming req see
system.mem_ctrl.wrQLenPdf::12                       1                       # What write queue length does an incoming req see
system.mem_ctrl.wrQLenPdf::13                       1                       # What write queue length does an incoming req see
system.mem_ctrl.wrQLenPdf::14                       1                       # What write queue length does an incoming req see
system.mem_ctrl.wrQLenPdf::15                      36                       # What write queue length does an incoming req see
system.mem_ctrl.wrQLenPdf::16                      37                       # What write queue length does an incoming req see
system.mem_ctrl.wrQLenPdf::17                      49                       # What write queue length does an incoming req see
system.mem_ctrl.wrQLenPdf::18                      49                       # What write queue length does an incoming req see
system.mem_ctrl.wrQLenPdf::19                      49                       # What write queue length does an incoming req see
system.mem_ctrl.wrQLenPdf::20                      49                       # What write queue length does an incoming req see
system.mem_ctrl.wrQLenPdf::21                      49                       # What write queue length does an incoming req see
system.mem_ctrl.wrQLenPdf::22                      49                       # What write queue length does an incoming req see
system.mem_ctrl.wrQLenPdf::23                      49                       # What write queue length does an incoming req see
system.mem_ctrl.wrQLenPdf::24                      48                       # What write queue length does an incoming req see
system.mem_ctrl.wrQLenPdf::25                      48                       # What write queue length does an incoming req see
system.mem_ctrl.wrQLenPdf::26                      48                       # What write queue length does an incoming req see
system.mem_ctrl.wrQLenPdf::27                      48                       # What write queue length does an incoming req see
system.mem_ctrl.wrQLenPdf::28                      48                       # What write queue length does an incoming req see
system.mem_ctrl.wrQLenPdf::29                      48                       # What write queue length does an incoming req see
system.mem_ctrl.wrQLenPdf::30                      48                       # What write queue length does an incoming req see
system.mem_ctrl.wrQLenPdf::31                      48                       # What write queue length does an incoming req see
system.mem_ctrl.wrQLenPdf::32                      48                       # What write queue length does an incoming req see
system.mem_ctrl.wrQLenPdf::33                       0                       # What write queue length does an incoming req see
system.mem_ctrl.wrQLenPdf::34                       0                       # What write queue length does an incoming req see
system.mem_ctrl.wrQLenPdf::35                       0                       # What write queue length does an incoming req see
system.mem_ctrl.wrQLenPdf::36                       0                       # What write queue length does an incoming req see
system.mem_ctrl.wrQLenPdf::37                       0                       # What write queue length does an incoming req see
system.mem_ctrl.wrQLenPdf::38                       0                       # What write queue length does an incoming req see
system.mem_ctrl.wrQLenPdf::39                       0                       # What write queue length does an incoming req see
system.mem_ctrl.wrQLenPdf::40                       0                       # What write queue length does an incoming req see
system.mem_ctrl.wrQLenPdf::41                       0                       # What write queue length does an incoming req see
system.mem_ctrl.wrQLenPdf::42                       0                       # What write queue length does an incoming req see
system.mem_ctrl.wrQLenPdf::43                       0                       # What write queue length does an incoming req see
system.mem_ctrl.wrQLenPdf::44                       0                       # What write queue length does an incoming req see
system.mem_ctrl.wrQLenPdf::45                       0                       # What write queue length does an incoming req see
system.mem_ctrl.wrQLenPdf::46                       0                       # What write queue length does an incoming req see
system.mem_ctrl.wrQLenPdf::47                       0                       # What write queue length does an incoming req see
system.mem_ctrl.wrQLenPdf::48                       0                       # What write queue length does an incoming req see
system.mem_ctrl.wrQLenPdf::49                       0                       # What write queue length does an incoming req see
system.mem_ctrl.wrQLenPdf::50                       0                       # What write queue length does an incoming req see
system.mem_ctrl.wrQLenPdf::51                       0                       # What write queue length does an incoming req see
system.mem_ctrl.wrQLenPdf::52                       0                       # What write queue length does an incoming req see
system.mem_ctrl.wrQLenPdf::53                       0                       # What write queue length does an incoming req see
system.mem_ctrl.wrQLenPdf::54                       0                       # What write queue length does an incoming req see
system.mem_ctrl.wrQLenPdf::55                       0                       # What write queue length does an incoming req see
system.mem_ctrl.wrQLenPdf::56                       0                       # What write queue length does an incoming req see
system.mem_ctrl.wrQLenPdf::57                       0                       # What write queue length does an incoming req see
system.mem_ctrl.wrQLenPdf::58                       0                       # What write queue length does an incoming req see
system.mem_ctrl.wrQLenPdf::59                       0                       # What write queue length does an incoming req see
system.mem_ctrl.wrQLenPdf::60                       0                       # What write queue length does an incoming req see
system.mem_ctrl.wrQLenPdf::61                       0                       # What write queue length does an incoming req see
system.mem_ctrl.wrQLenPdf::62                       0                       # What write queue length does an incoming req see
system.mem_ctrl.wrQLenPdf::63                       0                       # What write queue length does an incoming req see
system.mem_ctrl.bytesPerActivate::samples         2153                       # Bytes accessed per row activation
system.mem_ctrl.bytesPerActivate::mean     202.731073                       # Bytes accessed per row activation
system.mem_ctrl.bytesPerActivate::gmean    132.791899                       # Bytes accessed per row activation
system.mem_ctrl.bytesPerActivate::stdev    236.162510                       # Bytes accessed per row activation
system.mem_ctrl.bytesPerActivate::0-127           964     44.77%     44.77% # Bytes accessed per row activation
system.mem_ctrl.bytesPerActivate::128-255          688     31.96%     76.73% # Bytes accessed per row activation
system.mem_ctrl.bytesPerActivate::256-383          192      8.92%     85.65% # Bytes accessed per row activation
system.mem_ctrl.bytesPerActivate::384-511           83      3.86%     89.50% # Bytes accessed per row activation
system.mem_ctrl.bytesPerActivate::512-639           51      2.37%     91.87% # Bytes accessed per row activation
system.mem_ctrl.bytesPerActivate::640-767           31      1.44%     93.31% # Bytes accessed per row activation
system.mem_ctrl.bytesPerActivate::768-895           40      1.86%     95.17% # Bytes accessed per row activation
system.mem_ctrl.bytesPerActivate::896-1023           23      1.07%     96.24% # Bytes accessed per row activation
system.mem_ctrl.bytesPerActivate::1024-1151           81      3.76%    100.00% # Bytes accessed per row activation
system.mem_ctrl.bytesPerActivate::total          2153                       # Bytes accessed per row activation
system.mem_ctrl.rdPerTurnAround::samples           48                       # Reads before turning the bus around for writes
system.mem_ctrl.rdPerTurnAround::mean      124.208333                       # Reads before turning the bus around for writes
system.mem_ctrl.rdPerTurnAround::gmean      62.906343                       # Reads before turning the bus around for writes
system.mem_ctrl.rdPerTurnAround::stdev     287.400155                       # Reads before turning the bus around for writes
system.mem_ctrl.rdPerTurnAround::0-63              26     54.17%     54.17% # Reads before turning the bus around for writes
system.mem_ctrl.rdPerTurnAround::64-127            17     35.42%     89.58% # Reads before turning the bus around for writes
system.mem_ctrl.rdPerTurnAround::128-191            1      2.08%     91.67% # Reads before turning the bus around for writes
system.mem_ctrl.rdPerTurnAround::320-383            1      2.08%     93.75% # Reads before turning the bus around for writes
system.mem_ctrl.rdPerTurnAround::384-447            1      2.08%     95.83% # Reads before turning the bus around for writes
system.mem_ctrl.rdPerTurnAround::768-831            1      2.08%     97.92% # Reads before turning the bus around for writes
system.mem_ctrl.rdPerTurnAround::1856-1919            1      2.08%    100.00% # Reads before turning the bus around for writes
system.mem_ctrl.rdPerTurnAround::total             48                       # Reads before turning the bus around for writes
system.mem_ctrl.wrPerTurnAround::samples           48                       # Writes before turning the bus around for reads
system.mem_ctrl.wrPerTurnAround::mean       17.479167                       # Writes before turning the bus around for reads
system.mem_ctrl.wrPerTurnAround::gmean      17.456904                       # Writes before turning the bus around for reads
system.mem_ctrl.wrPerTurnAround::stdev       0.874937                       # Writes before turning the bus around for reads
system.mem_ctrl.wrPerTurnAround::16                12     25.00%     25.00% # Writes before turning the bus around for reads
system.mem_ctrl.wrPerTurnAround::17                 1      2.08%     27.08% # Writes before turning the bus around for reads
system.mem_ctrl.wrPerTurnAround::18                35     72.92%    100.00% # Writes before turning the bus around for reads
system.mem_ctrl.wrPerTurnAround::total             48                       # Writes before turning the bus around for reads
system.mem_ctrl.bytesReadDRAM                  383936                       # Total number of bytes read from DRAM
system.mem_ctrl.bytesReadWrQ                     7552                       # Total number of bytes read from write queue
system.mem_ctrl.bytesWritten                    53696                       # Total number of bytes written to DRAM
system.mem_ctrl.bytesReadSys                   391488                       # Total read bytes from the system interface side
system.mem_ctrl.bytesWrittenSys                 66240                       # Total written bytes from the system interface side
system.mem_ctrl.avgRdBW                         89.82                       # Average DRAM read bandwidth in MiByte/s
system.mem_ctrl.avgWrBW                         12.56                       # Average achieved write bandwidth in MiByte/s
system.mem_ctrl.avgRdBWSys                      91.59                       # Average system read bandwidth in MiByte/s
system.mem_ctrl.avgWrBWSys                      15.50                       # Average system write bandwidth in MiByte/s
system.mem_ctrl.peakBW                       12800.00                       # Theoretical peak bandwidth in MiByte/s
system.mem_ctrl.busUtil                          0.80                       # Data bus utilization in percentage
system.mem_ctrl.busUtilRead                      0.70                       # Data bus utilization in percentage for reads
system.mem_ctrl.busUtilWrite                     0.10                       # Data bus utilization in percentage for writes
system.mem_ctrl.totGap                     4274045000                       # Total gap between requests
system.mem_ctrl.avgGap                      597601.37                       # Average gap between requests
system.mem_ctrl.masterReadBytes::.cpu.inst       185152                       # Per-master bytes read from memory
system.mem_ctrl.masterReadBytes::.cpu.data       198784                       # Per-master bytes read from memory
system.mem_ctrl.masterWriteBytes::.writebacks        53696                       # Per-master bytes write to memory
system.mem_ctrl.masterReadRate::.cpu.inst 43315708.565047845244                       # Per-master bytes read from memory rate (Bytes/sec)
system.mem_ctrl.masterReadRate::.cpu.data 46504870.654351398349                       # Per-master bytes read from memory rate (Bytes/sec)
system.mem_ctrl.masterWriteRate::.writebacks 12562004.661622932181                       # Per-master bytes write to memory rate (Bytes/sec)
system.mem_ctrl.masterReadAccesses::.cpu.inst         2893                       # Per-master read serviced memory accesses
system.mem_ctrl.masterReadAccesses::.cpu.data         3224                       # Per-master read serviced memory accesses
system.mem_ctrl.masterWriteAccesses::.writebacks         1035                       # Per-master write serviced memory accesses
system.mem_ctrl.masterReadTotalLat::.cpu.inst     87435750                       # Per-master read total memory access latency
system.mem_ctrl.masterReadTotalLat::.cpu.data     83948750                       # Per-master read total memory access latency
system.mem_ctrl.masterWriteTotalLat::.writebacks  95950997500                       # Per-master write total memory access latency
system.mem_ctrl.masterReadAvgLat::.cpu.inst     30223.21                       # Per-master read average memory access latency
system.mem_ctrl.masterReadAvgLat::.cpu.data     26038.69                       # Per-master read average memory access latency
system.mem_ctrl.masterWriteAvgLat::.writebacks  92706277.78                       # Per-master write average memory access latency
system.mem_ctrl.pageHitRate                     68.23                       # Row buffer hit rate, read and write combined
system.mem_ctrl.rank1.actEnergy               6418860                       # Energy for activate commands per rank (pJ)
system.mem_ctrl.rank1.preEnergy               3411705                       # Energy for precharge commands per rank (pJ)
system.mem_ctrl.rank1.readEnergy             19399380                       # Energy for read commands per rank (pJ)
system.mem_ctrl.rank1.writeEnergy             2134980                       # Energy for write commands per rank (pJ)
system.mem_ctrl.rank1.refreshEnergy      336822720.000000                       # Energy for refresh commands per rank (pJ)
system.mem_ctrl.rank1.actBackEnergy         789548040                       # Energy for active background per rank (pJ)
system.mem_ctrl.rank1.preBackEnergy         976516800                       # Energy for precharge background per rank (pJ)
system.mem_ctrl.rank1.actPowerDownEnergy            0                       # Energy for active power-down per rank (pJ)
system.mem_ctrl.rank1.prePowerDownEnergy            0                       # Energy for precharge power-down per rank (pJ)
system.mem_ctrl.rank1.selfRefreshEnergy             0                       # Energy for self refresh per rank (pJ)
system.mem_ctrl.rank1.totalEnergy          2134252485                       # Total energy per rank (pJ)
system.mem_ctrl.rank1.averagePower         499.301431                       # Core power per rank (mW)
system.mem_ctrl.rank1.totalIdleTime                 0                       # Total Idle time Per DRAM Rank
system.mem_ctrl.rank1.memoryStateTime::IDLE   2530978000                       # Time in different power states
system.mem_ctrl.rank1.memoryStateTime::REF    142480000                       # Time in different power states
system.mem_ctrl.rank1.memoryStateTime::SREF            0                       # Time in different power states
system.mem_ctrl.rank1.memoryStateTime::PRE_PDN            0                       # Time in different power states
system.mem_ctrl.rank1.memoryStateTime::ACT   1601019000                       # Time in different power states
system.mem_ctrl.rank1.memoryStateTime::ACT_PDN            0                       # Time in different power states
system.mem_ctrl.rank0.actEnergy               8974980                       # Energy for activate commands per rank (pJ)
system.mem_ctrl.rank0.preEnergy               4758930                       # Energy for precharge commands per rank (pJ)
system.mem_ctrl.rank0.readEnergy             23433480                       # Energy for read commands per rank (pJ)
system.mem_ctrl.rank0.writeEnergy             2244600                       # Energy for write commands per rank (pJ)
system.mem_ctrl.rank0.refreshEnergy      336822720.000000                       # Energy for refresh commands per rank (pJ)
system.mem_ctrl.rank0.actBackEnergy         883803240                       # Energy for active background per rank (pJ)
system.mem_ctrl.rank0.preBackEnergy         897144000                       # Energy for precharge background per rank (pJ)
system.mem_ctrl.rank0.actPowerDownEnergy            0                       # Energy for active power-down per rank (pJ)
system.mem_ctrl.rank0.prePowerDownEnergy            0                       # Energy for precharge power-down per rank (pJ)
system.mem_ctrl.rank0.selfRefreshEnergy             0                       # Energy for self refresh per rank (pJ)
system.mem_ctrl.rank0.totalEnergy          2157181950                       # Total energy per rank (pJ)
system.mem_ctrl.rank0.averagePower         504.665705                       # Core power per rank (mW)
system.mem_ctrl.rank0.totalIdleTime                 0                       # Total Idle time Per DRAM Rank
system.mem_ctrl.rank0.memoryStateTime::IDLE   2323074250                       # Time in different power states
system.mem_ctrl.rank0.memoryStateTime::REF    142480000                       # Time in different power states
system.mem_ctrl.rank0.memoryStateTime::SREF            0                       # Time in different power states
system.mem_ctrl.rank0.memoryStateTime::PRE_PDN            0                       # Time in different power states
system.mem_ctrl.rank0.memoryStateTime::ACT   1808922750                       # Time in different power states
system.mem_ctrl.rank0.memoryStateTime::ACT_PDN            0                       # Time in different power states
system.mem_ctrl.power_state.pwrStateResidencyTicks::UNDEFINED   4274477000                       # Cumulative time (in ticks) in various power states
system.cache_medium.blocked_cycles::no_mshrs            0                       # number of cycles access was blocked
system.cache_medium.blocked_cycles::no_targets            0                       # number of cycles access was blocked
system.cache_medium.blocked::no_mshrs               0                       # number of cycles access was blocked
system.cache_medium.blocked::no_targets             0                       # number of cycles access was blocked
system.cache_medium.avg_blocked_cycles::no_mshrs          nan                       # average number of cycles each access was blocked
system.cache_medium.avg_blocked_cycles::no_targets          nan                       # average number of cycles each access was blocked
system.cache_medium.replacements                    0                       # number of replacements
system.cache_medium.power_state.pwrStateResidencyTicks::UNDEFINED   4274477000                       # Cumulative time (in ticks) in various power states
system.cache_medium.tags.tagsinuse                  0                       # Cycle average of tags in use
system.cache_medium.tags.total_refs                 0                       # Total number of references to valid blocks.
system.cache_medium.tags.sampled_refs               0                       # Sample count of references to valid blocks.
system.cache_medium.tags.avg_refs                 nan                       # Average number of references to valid blocks.
system.cache_medium.tags.warmup_cycle               0                       # Cycle when the warmup percentage was hit.
system.cache_medium.tags.tag_accesses               0                       # Number of tag accesses
system.cache_medium.tags.data_accesses              0                       # Number of data accesses
system.cache_medium.tags.power_state.pwrStateResidencyTicks::UNDEFINED   4274477000                       # Cumulative time (in ticks) in various power states
system.clk_domain.clock                          1000                       # Clock period in ticks
system.clk_domain.voltage_domain.voltage            1                       # Voltage in Volts
system.dcache.demand_hits::.cpu.data           322523                       # number of demand (read+write) hits
system.dcache.demand_hits::total               322523                       # number of demand (read+write) hits
system.dcache.overall_hits::.cpu.data          328108                       # number of overall hits
system.dcache.overall_hits::total              328108                       # number of overall hits
system.dcache.demand_misses::.cpu.data          12247                       # number of demand (read+write) misses
system.dcache.demand_misses::total              12247                       # number of demand (read+write) misses
system.dcache.overall_misses::.cpu.data         14930                       # number of overall misses
system.dcache.overall_misses::total             14930                       # number of overall misses
system.dcache.demand_miss_latency::.cpu.data    375509000                       # number of demand (read+write) miss cycles
system.dcache.demand_miss_latency::total    375509000                       # number of demand (read+write) miss cycles
system.dcache.overall_miss_latency::.cpu.data    449282000                       # number of overall miss cycles
system.dcache.overall_miss_latency::total    449282000                       # number of overall miss cycles
system.dcache.demand_accesses::.cpu.data       334770                       # number of demand (read+write) accesses
system.dcache.demand_accesses::total           334770                       # number of demand (read+write) accesses
system.dcache.overall_accesses::.cpu.data       343038                       # number of overall (read+write) accesses
system.dcache.overall_accesses::total          343038                       # number of overall (read+write) accesses
system.dcache.demand_miss_rate::.cpu.data     0.036583                       # miss rate for demand accesses
system.dcache.demand_miss_rate::total        0.036583                       # miss rate for demand accesses
system.dcache.overall_miss_rate::.cpu.data     0.043523                       # miss rate for overall accesses
system.dcache.overall_miss_rate::total       0.043523                       # miss rate for overall accesses
system.dcache.demand_avg_miss_latency::.cpu.data 30661.304809                       # average overall miss latency
system.dcache.demand_avg_miss_latency::total 30661.304809                       # average overall miss latency
system.dcache.overall_avg_miss_latency::.cpu.data 30092.565305                       # average overall miss latency
system.dcache.overall_avg_miss_latency::total 30092.565305                       # average overall miss latency
system.dcache.blocked_cycles::no_mshrs              0                       # number of cycles access was blocked
system.dcache.blocked_cycles::no_targets            0                       # number of cycles access was blocked
system.dcache.blocked::no_mshrs                     0                       # number of cycles access was blocked
system.dcache.blocked::no_targets                   0                       # number of cycles access was blocked
system.dcache.avg_blocked_cycles::no_mshrs          nan                       # average number of cycles each access was blocked
system.dcache.avg_blocked_cycles::no_targets          nan                       # average number of cycles each access was blocked
system.dcache.writebacks::.writebacks            5457                       # number of writebacks
system.dcache.writebacks::total                  5457                       # number of writebacks
system.dcache.demand_mshr_misses::.cpu.data        12247                       # number of demand (read+write) MSHR misses
[...]
system.dcache.tags.age_task_id_blocks_1024::2          173                       # Occupied blocks per task id
system.dcache.tags.age_task_id_blocks_1024::3           58                       # Occupied blocks per task id
system.dcache.tags.occ_task_id_percent::1024            1                       # Percentage of cache occupancy per task id
system.dcache.tags.tag_accesses               3040871                       # Number of tag accesses
system.dcache.tags.data_accesses              3040871                       # Number of data accesses
system.dcache.tags.power_state.pwrStateResidencyTicks::UNDEFINED  26455135000                       # Cumulative time (in ticks) in various power states
system.cache_large.blocked_cycles::no_mshrs            0                       # number of cycles access was blocked
system.cache_large.blocked_cycles::no_targets            0                       # number of cycles access was blocked
system.cache_large.blocked::no_mshrs                0                       # number of cycles access was blocked
system.cache_large.blocked::no_targets              0                       # number of cycles access was blocked
system.cache_large.avg_blocked_cycles::no_mshrs          nan                       # average number of cycles each access was blocked
system.cache_large.avg_blocked_cycles::no_targets          nan                       # average number of cycles each access was blocked
system.cache_large.replacements                     0                       # number of replacements
system.cache_large.power_state.pwrStateResidencyTicks::UNDEFINED  26455135000                       # Cumulative time (in ticks) in various power states
system.cache_large.tags.tagsinuse                   0                       # Cycle average of tags in use
system.cache_large.tags.total_refs                  0                       # Total number of references to valid blocks.
system.cache_large.tags.sampled_refs                0                       # Sample count of references to valid blocks.
system.cache_large.tags.avg_refs                  nan                       # Average number of references to valid blocks.
system.cache_large.tags.warmup_cycle                0                       # Cycle when the warmup percentage was hit.
system.cache_large.tags.tag_accesses                0                       # Number of tag accesses
system.cache_large.tags.data_accesses               0                       # Number of data accesses
system.cache_large.tags.power_state.pwrStateResidencyTicks::UNDEFINED  26455135000                       # Cumulative time (in ticks) in various power states
system.l2cache.demand_hits::.cpu.inst            7370                       # number of demand (read+write) hits
system.l2cache.demand_hits::.cpu.data           10416                       # number of demand (read+write) hits
system.l2cache.demand_hits::total               17786                       # number of demand (read+write) hits
system.l2cache.overall_hits::.cpu.inst           7370                       # number of overall hits
system.l2cache.overall_hits::.cpu.data          10416                       # number of overall hits
system.l2cache.overall_hits::total              17786                       # number of overall hits
system.l2cache.demand_misses::.cpu.inst         13991                       # number of demand (read+write) misses
system.l2cache.demand_misses::.cpu.data         79942                       # number of demand (read+write) misses
system.l2cache.demand_misses::total             93933                       # number of demand (read+write) misses
system.l2cache.overall_misses::.cpu.inst        13991                       # number of overall misses
system.l2cache.overall_misses::.cpu.data        79942                       # number of overall misses
system.l2cache.overall_misses::total            93933                       # number of overall misses
system.l2cache.demand_miss_latency::.cpu.inst    453425000                       # number of demand (read+write) miss cycles
system.l2cache.demand_miss_latency::.cpu.data   1547867000                       # number of demand (read+write) miss cycles
system.l2cache.demand_miss_latency::total   2001292000                       # number of demand (read+write) miss cycles
system.l2cache.overall_miss_latency::.cpu.inst    453425000                       # number of overall miss cycles
system.l2cache.overall_miss_latency::.cpu.data   1547867000                       # number of overall miss cycles
system.l2cache.overall_miss_latency::total   2001292000                       # number of overall miss cycles
system.l2cache.demand_accesses::.cpu.inst        21361                       # number of demand (read+write) accesses
system.l2cache.demand_accesses::.cpu.data        90358                       # number of demand (read+write) accesses
system.l2cache.demand_accesses::total          111719                       # number of demand (read+write) accesses
system.l2cache.overall_accesses::.cpu.inst        21361                       # number of overall (read+write) accesses
system.l2cache.overall_accesses::.cpu.data        90358                       # number of overall (read+write) accesses
system.l2cache.overall_accesses::total         111719                       # number of overall (read+write) accesses
system.l2cache.demand_miss_rate::.cpu.inst     0.654979                       # miss rate for demand accesses
system.l2cache.demand_miss_rate::.cpu.data     0.884725                       # miss rate for demand accesses
system.l2cache.demand_miss_rate::total       0.840797                       # miss rate for demand accesses
system.l2cache.overall_miss_rate::.cpu.inst     0.654979                       # miss rate for overall accesses
system.l2cache.overall_miss_rate::.cpu.data     0.884725                       # miss rate for overall accesses
system.l2cache.overall_miss_rate::total      0.840797                       # miss rate for overall accesses
system.l2cache.demand_avg_miss_latency::.cpu.inst 32408.333929                       # average overall miss latency
system.l2cache.demand_avg_miss_latency::.cpu.data 19362.375222                       # average overall miss latency
system.l2cache.demand_avg_miss_latency::total 21305.526279                       # average overall miss latency
system.l2cache.overall_avg_miss_latency::.cpu.inst 32408.333929                       # average overall miss latency
system.l2cache.overall_avg_miss_latency::.cpu.data 19362.375222                       # average overall miss latency
system.l2cache.overall_avg_miss_latency::total 21305.526279                       # average overall miss latency
system.l2cache.blocked_cycles::no_mshrs             0                       # number of cycles access was blocked
system.l2cache.blocked_cycles::no_targets            0                       # number of cycles access was blocked
system.l2cache.blocked::no_mshrs                    0                       # number of cycles access was blocked
system.l2cache.blocked::no_targets                  0                       # number of cycles access was blocked
system.l2cache.avg_blocked_cycles::no_mshrs          nan                       # average number of cycles each access was blocked
system.l2cache.avg_blocked_cycles::no_targets          nan                       # average number of cycles each access was blocked
system.l2cache.writebacks::.writebacks          13481                       # number of writebacks
system.l2cache.writebacks::total                13481                       # number of writebacks
system.l2cache.demand_mshr_misses::.cpu.inst        13991                       # number of demand (read+write) MSHR misses
system.l2cache.demand_mshr_misses::.cpu.data        79942                       # number of demand (read+write) MSHR misses
system.l2cache.demand_mshr_misses::total        93933                       # number of demand (read+write) MSHR misses
system.l2cache.overall_mshr_misses::.cpu.inst        13991                       # number of overall MSHR misses
system.l2cache.overall_mshr_misses::.cpu.data        79942                       # number of overall MSHR misses
system.l2cache.overall_mshr_misses::total        93933                       # number of overall MSHR misses
system.l2cache.demand_mshr_miss_latency::.cpu.inst    425443000                       # number of demand (read+write) MSHR miss cycles
system.l2cache.demand_mshr_miss_latency::.cpu.data   1387983000                       # number of demand (read+write) MSHR miss cycles
system.l2cache.demand_mshr_miss_latency::total   1813426000                       # number of demand (read+write) MSHR miss cycles
system.l2cache.overall_mshr_miss_latency::.cpu.inst    425443000                       # number of overall MSHR miss cycles
system.l2cache.overall_mshr_miss_latency::.cpu.data   1387983000                       # number of overall MSHR miss cycles
system.l2cache.overall_mshr_miss_latency::total   1813426000                       # number of overall MSHR miss cycles
system.l2cache.demand_mshr_miss_rate::.cpu.inst     0.654979                       # mshr miss rate for demand accesses
system.l2cache.demand_mshr_miss_rate::.cpu.data     0.884725                       # mshr miss rate for demand accesses
system.l2cache.demand_mshr_miss_rate::total     0.840797                       # mshr miss rate for demand accesses
system.l2cache.overall_mshr_miss_rate::.cpu.inst     0.654979                       # mshr miss rate for overall accesses
system.l2cache.overall_mshr_miss_rate::.cpu.data     0.884725                       # mshr miss rate for overall accesses
system.l2cache.overall_mshr_miss_rate::total     0.840797                       # mshr miss rate for overall accesses
system.l2cache.demand_avg_mshr_miss_latency::.cpu.inst 30408.333929                       # average overall mshr miss latency
system.l2cache.demand_avg_mshr_miss_latency::.cpu.data 17362.375222                       # average overall mshr miss latency
system.l2cache.demand_avg_mshr_miss_latency::total 19305.526279                       # average overall mshr miss latency
system.l2cache.overall_avg_mshr_miss_latency::.cpu.inst 30408.333929                       # average overall mshr miss latency
system.l2cache.overall_avg_mshr_miss_latency::.cpu.data 17362.375222                       # average overall mshr miss latency
system.l2cache.overall_avg_mshr_miss_latency::total 19305.526279                       # average overall mshr miss latency
system.l2cache.replacements                    102179                       # number of replacements
system.l2cache.ReadReq_hits::.cpu.inst           7370                       # number of ReadReq hits
system.l2cache.ReadReq_hits::.cpu.data          10416                       # number of ReadReq hits
system.l2cache.ReadReq_hits::total              17786                       # number of ReadReq hits
system.l2cache.ReadReq_misses::.cpu.inst        13991                       # number of ReadReq misses
system.l2cache.ReadReq_misses::.cpu.data        79942                       # number of ReadReq misses
system.l2cache.ReadReq_misses::total            93933                       # number of ReadReq misses
system.l2cache.ReadReq_miss_latency::.cpu.inst    453425000                       # number of ReadReq miss cycles
system.l2cache.ReadReq_miss_latency::.cpu.data   1547867000                       # number of ReadReq miss cycles
system.l2cache.ReadReq_miss_latency::total   2001292000                       # number of ReadReq miss cycles
system.l2cache.ReadReq_accesses::.cpu.inst        21361                       # number of ReadReq accesses(hits+misses)
system.l2cache.ReadReq_accesses::.cpu.data        90358                       # number of ReadReq accesses(hits+misses)
system.l2cache.ReadReq_accesses::total         111719                       # number of ReadReq accesses(hits+misses)
system.l2cache.ReadReq_miss_rate::.cpu.inst     0.654979                       # miss rate for ReadReq accesses
system.l2cache.ReadReq_miss_rate::.cpu.data     0.884725                       # miss rate for ReadReq accesses
system.l2cache.ReadReq_miss_rate::total      0.840797                       # miss rate for ReadReq accesses
system.l2cache.ReadReq_avg_miss_latency::.cpu.inst 32408.333929                       # average ReadReq miss latency
system.l2cache.ReadReq_avg_miss_latency::.cpu.data 19362.375222                       # average ReadReq miss latency
system.l2cache.ReadReq_avg_miss_latency::total 21305.526279                       # average ReadReq miss latency
system.l2cache.ReadReq_mshr_misses::.cpu.inst        13991                       # number of ReadReq MSHR misses
system.l2cache.ReadReq_mshr_misses::.cpu.data        79942                       # number of ReadReq MSHR misses
system.l2cache.ReadReq_mshr_misses::total        93933                       # number of ReadReq MSHR misses
system.l2cache.ReadReq_mshr_miss_latency::.cpu.inst    425443000                       # number of ReadReq MSHR miss cycles
system.l2cache.ReadReq_mshr_miss_latency::.cpu.data   1387983000                       # number of ReadReq MSHR miss cycles
system.l2cache.ReadReq_mshr_miss_latency::total   1813426000                       # number of ReadReq MSHR miss cycles
system.l2cache.ReadReq_mshr_miss_rate::.cpu.inst     0.654979                       # mshr miss rate for ReadReq accesses
system.l2cache.ReadReq_mshr_miss_rate::.cpu.data     0.884725                       # mshr miss rate for ReadReq accesses
system.l2cache.ReadReq_mshr_miss_rate::total     0.840797                       # mshr miss rate for ReadReq accesses
system.l2cache.ReadReq_avg_mshr_miss_latency::.cpu.inst 30408.333929                       # average ReadReq mshr miss latency
system.l2cache.ReadReq_avg_mshr_miss_latency::.cpu.data 17362.375222                       # average ReadReq mshr miss latency
system.l2cache.ReadReq_avg_mshr_miss_latency::total 19305.526279                       # average ReadReq mshr miss latency
system.l2cache.WritebackDirty_hits::.writebacks        16196                       # number of WritebackDirty hits
system.l2cache.WritebackDirty_hits::total        16196                       # number of WritebackDirty hits
system.l2cache.WritebackDirty_accesses::.writebacks        16196                       # number of WritebackDirty accesses(hits+misses)
system.l2cache.WritebackDirty_accesses::total        16196                       # number of WritebackDirty accesses(hits+misses)
system.l2cache.power_state.pwrStateResidencyTicks::UNDEFINED  26455135000                       # Cumulative time (in ticks) in various power states
system.l2cache.tags.tagsinuse              510.049130                       # Cycle average of tags in use
system.l2cache.tags.total_refs                 127915                       # Total number of references to valid blocks.
system.l2cache.tags.sampled_refs               102691                       # Sample count of references to valid blocks.
system.l2cache.tags.avg_refs                 1.245630                       # Average number of references to valid blocks.
system.l2cache.tags.warmup_cycle                78000                       # Cycle when the warmup percentage was hit.
system.l2cache.tags.occ_blocks::.writebacks    96.120567                       # Average occupied blocks per requestor
system.l2cache.tags.occ_blocks::.cpu.inst    46.663170                       # Average occupied blocks per requestor
system.l2cache.tags.occ_blocks::.cpu.data   367.265393                       # Average occupied blocks per requestor
system.l2cache.tags.occ_percent::.writebacks     0.187735                       # Average percentage of cache occupancy
system.l2cache.tags.occ_percent::.cpu.inst     0.091139                       # Average percentage of cache occupancy
system.l2cache.tags.occ_percent::.cpu.data     0.717315                       # Average percentage of cache occupancy
system.l2cache.tags.occ_percent::total       0.996190                       # Average percentage of cache occupancy
system.l2cache.tags.occ_task_id_blocks::1024          512                       # Occupied blocks per task id
system.l2cache.tags.age_task_id_blocks_1024::0            3                       # Occupied blocks per task id
system.l2cache.tags.age_task_id_blocks_1024::1           22                       # Occupied blocks per task id
system.l2cache.tags.age_task_id_blocks_1024::2          212                       # Occupied blocks per task id
system.l2cache.tags.age_task_id_blocks_1024::3          275                       # Occupied blocks per task id
system.l2cache.tags.occ_task_id_percent::1024            1                       # Percentage of cache occupancy per task id
system.l2cache.tags.tag_accesses               230606                       # Number of tag accesses
system.l2cache.tags.data_accesses              230606                       # Number of data accesses
system.l2cache.tags.power_state.pwrStateResidencyTicks::UNDEFINED  26455135000                       # Cumulative time (in ticks) in various power states
system.l2bar.trans_dist::ReadReq               111719                       # Transaction distribution
system.l2bar.trans_dist::ReadResp              111719                       # Transaction distribution
system.l2bar.trans_dist::WritebackDirty         16196                       # Transaction distribution
system.l2bar.pkt_count_system.dcache.mem_side::system.l2cache.cpu_side       196912                       # Packet count per connected master and slave (bytes)
system.l2bar.pkt_count_system.icache.mem_side::system.l2cache.cpu_side        42722                       # Packet count per connected master and slave (bytes)
system.l2bar.pkt_count::total                  239634                       # Packet count per connected master and slave (bytes)
system.l2bar.pkt_size_system.dcache.mem_side::system.l2cache.cpu_side      6819456                       # Cumulative packet size per connected master and slave (bytes)
system.l2bar.pkt_size_system.icache.mem_side::system.l2cache.cpu_side      1367104                       # Cumulative packet size per connected master and slave (bytes)
system.l2bar.pkt_size::total                  8186560                       # Cumulative packet size per connected master and slave (bytes)
system.l2bar.respLayer1.occupancy           106805000                       # Layer occupancy (ticks)
system.l2bar.respLayer1.utilization               0.4                       # Layer utilization (%)
system.l2bar.reqLayer0.occupancy            192699000                       # Layer occupancy (ticks)
system.l2bar.reqLayer0.utilization                0.7                       # Layer utilization (%)
system.l2bar.respLayer0.occupancy           451790000                       # Layer occupancy (ticks)
system.l2bar.respLayer0.utilization               1.7                       # Layer utilization (%)
system.l2bar.power_state.pwrStateResidencyTicks::UNDEFINED  26455135000                       # Cumulative time (in ticks) in various power states
system.cpu.dtb.walker.power_state.pwrStateResidencyTicks::UNDEFINED  26455135000                       # Cumulative time (in ticks) in various power states
system.cpu.interrupts.clk_domain.clock          16000                       # Clock period in ticks
system.cpu.itb.walker.power_state.pwrStateResidencyTicks::UNDEFINED  26455135000                       # Cumulative time (in ticks) in various power states
system.cpu.power_state.numTransitions               1                       # Number of power state transitions
system.cpu.power_state.pwrStateResidencyTicks::ON  26455135000                       # Cumulative time (in ticks) in various power states

---------- End Simulation Statistics   ----------
