
---------- Begin Simulation Statistics ----------
final_tick                               152424518000                       # Number of ticks from beginning of simulation (restored from checkpoints and never reset)
host_inst_rate                                 225040                       # Simulator instruction rate (inst/s)
host_mem_usage                                 737848                       # Number of bytes of host memory used
host_op_rate                                   421287                       # Simulator op (including micro ops) rate (op/s)
host_seconds                                     8.89                       # Real time elapsed on the host
host_tick_rate                            17150509360                       # Simulator tick rate (ticks/s)
sim_freq                                 1000000000000                       # Frequency of simulated ticks
sim_insts                                     2000000                       # Number of instructions simulated
sim_ops                                       3744159                       # Number of ops (including micro ops) simulated
sim_seconds                                  0.152425                       # Number of seconds simulated
sim_ticks                                152424518000                       # Number of ticks simulated
system.cachebus.snoop_filter.hit_multi_requests            0                       # Number of requests hitting in the snoop filter with multiple (>1) holders of the requested data.
system.cachebus.snoop_filter.hit_multi_snoops            0                       # Number of snoops hitting in the snoop filter with multiple (>1) holders of the requested data.
system.cachebus.snoop_filter.hit_single_requests            0                       # Number of requests hitting in the snoop filter with a single holder of the requested data.
system.cachebus.snoop_filter.hit_single_snoops            0                       # Number of snoops hitting in the snoop filter with a single holder of the requested data.
system.cachebus.snoop_filter.tot_requests            0                       # Total number of requests made to the snoop filter.
system.cachebus.snoop_filter.tot_snoops             0                       # Total number of snoops made to the snoop filter.
system.cpu.Branches                            445430                       # Number of branches fetched
system.cpu.committedInsts                     2000000                       # Number of instructions committed
system.cpu.committedOps                       3744159                       # Number of ops (including micro ops) committed
system.cpu.dtb.rdAccesses                      468043                       # TLB accesses on read requests
system.cpu.dtb.rdMisses                            72                       # TLB misses on read requests
system.cpu.dtb.wrAccesses                      271389                       # TLB accesses on write requests
system.cpu.dtb.wrMisses                            68                       # TLB misses on write requests
system.cpu.idle_fraction                            0                       # Percentage of idle cycles
system.cpu.itb.rdAccesses                           0                       # TLB accesses on read requests
system.cpu.itb.rdMisses                             0                       # TLB misses on read requests
system.cpu.itb.wrAccesses                     2600900                       # TLB accesses on write requests
system.cpu.itb.wrMisses                           158                       # TLB misses on write requests
system.cpu.not_idle_fraction                        1                       # Percentage of non-idle cycles
system.cpu.numCycles                        152424518                       # number of cpu cycles simulated
system.cpu.numWorkItemsCompleted                    0                       # number of work items this cpu completed
system.cpu.numWorkItemsStarted                      0                       # number of work items this cpu started
system.cpu.num_busy_cycles                  152424518                       # Number of busy cycles
system.cpu.num_cc_register_reads              2296439                       # number of times the CC registers were read
system.cpu.num_cc_register_writes             1246242                       # number of times the CC registers were written
system.cpu.num_conditional_control_insts       334537                       # number of instructions that are conditional controls
system.cpu.num_fp_alu_accesses                  40540                       # Number of float alu accesses
system.cpu.num_fp_insts                         40540                       # number of float instructions
system.cpu.num_fp_register_reads                64927                       # number of times the floating registers were read
system.cpu.num_fp_register_writes               32124                       # number of times the floating registers were written
system.cpu.num_func_calls                       71290                       # number of times a function call or return occured
system.cpu.num_idle_cycles                          0                       # Number of idle cycles
system.cpu.num_int_alu_accesses               3705523                       # Number of integer alu accesses
system.cpu.num_int_insts                      3705523                       # number of integer instructions
system.cpu.num_int_register_reads             7294243                       # number of times the integer registers were read
system.cpu.num_int_register_writes            2987340                       # number of times the integer registers were written
system.cpu.num_load_insts                      467611                       # Number of load instructions
system.cpu.num_mem_refs                        738864                       # number of memory refs
system.cpu.num_store_insts                     271253                       # Number of store instructions
system.cpu.num_vec_alu_accesses                     0                       # Number of vector alu accesses
system.cpu.num_vec_insts                            0                       # number of vector instructions
system.cpu.num_vec_register_reads                   0                       # number of times the vector registers were read
system.cpu.num_vec_register_writes                  0                       # number of times the vector registers were written
system.cpu.op_class::No_OpClass                 12023      0.32%      0.32% # Class of executed instruction
system.cpu.op_class::IntAlu                   2961532     79.10%     79.42% # Class of executed instruction
system.cpu.op_class::IntMult                      305      0.01%     79.43% # Class of executed instruction
system.cpu.op_class::IntDiv                       315      0.01%     79.43% # Class of executed instruction
system.cpu.op_class::FloatAdd                     151      0.00%     79.44% # Class of executed instruction
system.cpu.op_class::FloatCmp                       0      0.00%     79.44% # Class of executed instruction
system.cpu.op_class::FloatCvt                       0      0.00%     79.44% # Class of executed instruction
system.cpu.op_class::FloatMult                      0      0.00%     79.44% # Class of executed instruction
system.cpu.op_class::FloatMultAcc                   0      0.00%     79.44% # Class of executed instruction
system.cpu.op_class::FloatDiv                       0      0.00%     79.44% # Class of executed instruction
system.cpu.op_class::FloatMisc                      0      0.00%     79.44% # Class of executed instruction
system.cpu.op_class::FloatSqrt                      0      0.00%     79.44% # Class of executed instruction
system.cpu.op_class::SimdAdd                       16      0.00%     79.44% # Class of executed instruction
system.cpu.op_class::SimdAddAcc                     0      0.00%     79.44% # Class of executed instruction
system.cpu.op_class::SimdAlu                    14440      0.39%     79.82% # Class of executed instruction
system.cpu.op_class::SimdCmp                      288      0.01%     79.83% # Class of executed instruction
system.cpu.op_class::SimdCvt                     7956      0.21%     80.04% # Class of executed instruction
system.cpu.op_class::SimdMisc                    8242      0.22%     80.26% # Class of executed instruction
system.cpu.op_class::SimdMult                       0      0.00%     80.26% # Class of executed instruction
system.cpu.op_class::SimdMultAcc                    0      0.00%     80.26% # Class of executed instruction
system.cpu.op_class::SimdShift                      0      0.00%     80.26% # Class of executed instruction
system.cpu.op_class::SimdShiftAcc                   0      0.00%     80.26% # Class of executed instruction
system.cpu.op_class::SimdDiv                        0      0.00%     80.26% # Class of executed instruction
system.cpu.op_class::SimdSqrt                       0      0.00%     80.26% # Class of executed instruction
system.cpu.op_class::SimdFloatAdd                   0      0.00%     80.26% # Class of executed instruction
system.cpu.op_class::SimdFloatAlu                   0      0.00%     80.26% # Class of executed instruction
system.cpu.op_class::SimdFloatCmp                   0      0.00%     80.26% # Class of executed instruction
system.cpu.op_class::SimdFloatCvt                  57      0.00%     80.27% # Class of executed instruction
system.cpu.op_class::SimdFloatDiv                   0      0.00%     80.27% # Class of executed instruction
system.cpu.op_class::SimdFloatMisc                  0      0.00%     80.27% # Class of executed instruction
system.cpu.op_class::SimdFloatMult                  0      0.00%     80.27% # Class of executed instruction
system.cpu.op_class::SimdFloatMultAcc               0      0.00%     80.27% # Class of executed instruction
system.cpu.op_class::SimdFloatSqrt                  0      0.00%     80.27% # Class of executed instruction
system.cpu.op_class::SimdReduceAdd                  0      0.00%     80.27% # Class of executed instruction
system.cpu.op_class::SimdReduceAlu                  0      0.00%     80.27% # Class of executed instruction
system.cpu.op_class::SimdReduceCmp                  0      0.00%     80.27% # Class of executed instruction
system.cpu.op_class::SimdFloatReduceAdd             0      0.00%     80.27% # Class of executed instruction
system.cpu.op_class::SimdFloatReduceCmp             0      0.00%     80.27% # Class of executed instruction
system.cpu.op_class::SimdAes                        0      0.00%     80.27% # Class of executed instruction
system.cpu.op_class::SimdAesMix                     0      0.00%     80.27% # Class of executed instruction
system.cpu.op_class::SimdSha1Hash                   0      0.00%     80.27% # Class of executed instruction
system.cpu.op_class::SimdSha1Hash2                  0      0.00%     80.27% # Class of executed instruction
system.cpu.op_class::SimdSha256Hash                 0      0.00%     80.27% # Class of executed instruction
system.cpu.op_class::SimdSha256Hash2                0      0.00%     80.27% # Class of executed instruction
system.cpu.op_class::SimdShaSigma2                  0      0.00%     80.27% # Class of executed instruction
system.cpu.op_class::SimdShaSigma3                  0      0.00%     80.27% # Class of executed instruction
system.cpu.op_class::SimdPredAlu                    0      0.00%     80.27% # Class of executed instruction
system.cpu.op_class::MemRead                   459796     12.28%     92.55% # Class of executed instruction
system.cpu.op_class::MemWrite                  270282      7.22%     99.77% # Class of executed instruction
system.cpu.op_class::FloatMemRead                7815      0.21%     99.97% # Class of executed instruction
system.cpu.op_class::FloatMemWrite                971      0.03%    100.00% # Class of executed instruction
system.cpu.op_class::IprAccess                      0      0.00%    100.00% # Class of executed instruction
system.cpu.op_class::InstPrefetch                   0      0.00%    100.00% # Class of executed instruction
system.cpu.op_class::total                    3744189                       # Class of executed instruction
system.cpu.workload.numSyscalls                    11                       # Number of system calls
system.membus.snoop_filter.hit_multi_requests            0                       # Number of requests hitting in the snoop filter with multiple (>1) holders of the requested data.
system.membus.snoop_filter.hit_multi_snoops            0                       # Number of snoops hitting in the snoop filter with multiple (>1) holders of the requested data.
system.membus.snoop_filter.hit_single_requests            0                       # Number of requests hitting in the snoop filter with a single holder of the requested data.
system.membus.snoop_filter.hit_single_snoops            0                       # Number of snoops hitting in the snoop filter with a single holder of the requested data.
system.membus.snoop_filter.tot_requests           847                       # Total number of requests made to the snoop filter.
system.membus.snoop_filter.tot_snoops               0                       # Total number of snoops made to the snoop filter.
system.membus.trans_dist::ReadReq             2852329                       # Transaction distribution
system.membus.trans_dist::ReadResp            2852620                       # Transaction distribution
system.membus.trans_dist::WriteReq             158305                       # Transaction distribution
system.membus.trans_dist::WriteResp            158305                       # Transaction distribution
system.membus.trans_dist::SoftPFReq                75                       # Transaction distribution
system.membus.trans_dist::SoftPFResp               75                       # Transaction distribution
system.membus.trans_dist::ReadExReq               555                       # Transaction distribution
system.membus.trans_dist::ReadExResp              555                       # Transaction distribution
system.membus.trans_dist::ReadSharedReq           292                       # Transaction distribution
system.membus.pkt_count_system.cpu.icache_port::system.mem_ctrl.port      5201799                       # Packet count per connected master and slave (bytes)
system.membus.pkt_count_system.cpu.icache_port::total      5201799                       # Packet count per connected master and slave (bytes)
system.membus.pkt_count_system.memobj.mem_side::system.mem_ctrl.port       819618                       # Packet count per connected master and slave (bytes)
system.membus.pkt_count_system.memobj.mem_side::total       819618                       # Packet count per connected master and slave (bytes)
system.membus.pkt_count_system.cache.mem_side::system.mem_ctrl.port         1694                       # Packet count per connected master and slave (bytes)
system.membus.pkt_count_system.cache.mem_side::total         1694                       # Packet count per connected master and slave (bytes)
system.membus.pkt_count::total                6023111                       # Packet count per connected master and slave (bytes)
system.membus.pkt_size_system.cpu.icache_port::system.mem_ctrl.port     20807192                       # Cumulative packet size per connected master and slave (bytes)
system.membus.pkt_size_system.cpu.icache_port::total     20807192                       # Cumulative packet size per connected master and slave (bytes)
system.membus.pkt_size_system.memobj.mem_side::system.mem_ctrl.port      2604859                       # Cumulative packet size per connected master and slave (bytes)
system.membus.pkt_size_system.memobj.mem_side::total      2604859                       # Cumulative packet size per connected master and slave (bytes)
system.membus.pkt_size_system.cache.mem_side::system.mem_ctrl.port        54208                       # Cumulative packet size per connected master and slave (bytes)
system.membus.pkt_size_system.cache.mem_side::total        54208                       # Cumulative packet size per connected master and slave (bytes)
system.membus.pkt_size::total                23466259                       # Cumulative packet size per connected master and slave (bytes)
system.membus.snoops                                0                       # Total snoops (count)
system.membus.snoopTraffic                          0                       # Total snoop traffic (bytes)
system.membus.snoop_fanout::samples           3011556                       # Request fanout histogram
system.membus.snoop_fanout::mean                    0                       # Request fanout histogram
system.membus.snoop_fanout::stdev                   0                       # Request fanout histogram
system.membus.snoop_fanout::underflows              0      0.00%      0.00% # Request fanout histogram
system.membus.snoop_fanout::0                 3011556    100.00%    100.00% # Request fanout histogram
system.membus.snoop_fanout::1                       0      0.00%    100.00% # Request fanout histogram
system.membus.snoop_fanout::overflows               0      0.00%    100.00% # Request fanout histogram
system.membus.snoop_fanout::min_value               0                       # Request fanout histogram
system.membus.snoop_fanout::max_value               0                       # Request fanout histogram
system.membus.snoop_fanout::total             3011556                       # Request fanout histogram
system.membus.reqLayer2.occupancy          3169861000                       # Layer occupancy (ticks)
system.membus.reqLayer2.utilization               2.1                       # Layer utilization (%)
system.membus.respLayer1.occupancy          735887000                       # Layer occupancy (ticks)
system.membus.respLayer1.utilization              0.5                       # Layer utilization (%)
system.membus.respLayer0.occupancy         5901463500                       # Layer occupancy (ticks)
system.membus.respLayer0.utilization              3.9                       # Layer utilization (%)
system.membus.respLayer2.occupancy            4612750                       # Layer occupancy (ticks)
system.membus.respLayer2.utilization              0.0                       # Layer utilization (%)
system.membus.power_state.pwrStateResidencyTicks::UNDEFINED 152424518000                       # Cumulative time (in ticks) in various power states
system.mem_ctrl.bytes_read::.cpu.inst        20807192                       # Number of bytes read from this memory
system.mem_ctrl.bytes_read::.cpu.data         1574729                       # Number of bytes read from this memory
system.mem_ctrl.bytes_read::total            22381921                       # Number of bytes read from this memory
system.mem_ctrl.bytes_inst_read::.cpu.inst     20807192                       # Number of instructions bytes read from this memory
system.mem_ctrl.bytes_inst_read::total       20807192                       # Number of instructions bytes read from this memory
system.mem_ctrl.bytes_written::.cpu.data      1084338                       # Number of bytes written to this memory
system.mem_ctrl.bytes_written::total          1084338                       # Number of bytes written to this memory
system.mem_ctrl.num_reads::.cpu.inst          2600899                       # Number of read requests responded to by this memory
system.mem_ctrl.num_reads::.cpu.data           252351                       # Number of read requests responded to by this memory
system.mem_ctrl.num_reads::total              2853250                       # Number of read requests responded to by this memory
system.mem_ctrl.num_writes::.cpu.data          158305                       # Number of write requests responded to by this memory
system.mem_ctrl.num_writes::total              158305                       # Number of write requests responded to by this memory
system.mem_ctrl.bw_read::.cpu.inst          136508170                       # Total read bandwidth from this memory (bytes/s)
system.mem_ctrl.bw_read::.cpu.data           10331205                       # Total read bandwidth from this memory (bytes/s)
system.mem_ctrl.bw_read::total              146839375                       # Total read bandwidth from this memory (bytes/s)
system.mem_ctrl.bw_inst_read::.cpu.inst     136508170                       # Instruction read bandwidth from this memory (bytes/s)
system.mem_ctrl.bw_inst_read::total         136508170                       # Instruction read bandwidth from this memory (bytes/s)
system.mem_ctrl.bw_write::.cpu.data           7113934                       # Write bandwidth from this memory (bytes/s)
system.mem_ctrl.bw_write::total               7113934                       # Write bandwidth from this memory (bytes/s)
system.mem_ctrl.bw_total::.cpu.inst         136508170                       # Total bandwidth to/from this memory (bytes/s)
system.mem_ctrl.bw_total::.cpu.data          17445140                       # Total bandwidth to/from this memory (bytes/s)
system.mem_ctrl.bw_total::total             153953310                       # Total bandwidth to/from this memory (bytes/s)
system.mem_ctrl.avgPriority_.cpu.inst::samples   2600900.00                       # Average QoS priority value for accepted requests
system.mem_ctrl.avgPriority_.cpu.data::samples    227553.00                       # Average QoS priority value for accepted requests
system.mem_ctrl.priorityMinLatency       0.000000018750                       # per QoS priority minimum request to response latency (s)
system.mem_ctrl.priorityMaxLatency       0.005492956500                       # per QoS priority maximum request to response latency (s)
system.mem_ctrl.numReadWriteTurnArounds           412                       # Number of turnarounds from READ to WRITE
system.mem_ctrl.numWriteReadTurnArounds           412                       # Number of turnarounds from WRITE to READ
system.mem_ctrl.numStayReadState              5840583                       # Number of times bus staying in READ state
system.mem_ctrl.numStayWriteState                6214                       # Number of times bus staying in WRITE state
system.mem_ctrl.readReqs                      2853251                       # Number of read requests accepted
system.mem_ctrl.writeReqs                      158305                       # Number of write requests accepted
system.mem_ctrl.readBursts                    2853251                       # Number of DRAM read bursts, including those serviced by the write queue
system.mem_ctrl.writeBursts                    158305                       # Number of DRAM write bursts, including those merged in the write queue
system.mem_ctrl.servicedByWrQ                   31438                       # Number of DRAM read bursts serviced by the write queue
system.mem_ctrl.mergedWrBursts                 151665                       # Number of DRAM write bursts merged with an existing one
system.mem_ctrl.neitherReadNorWriteReqs             0                       # Number of requests that are neither read nor write
system.mem_ctrl.perBankRdBursts::0              80887                       # Per bank write bursts
system.mem_ctrl.perBankRdBursts::1             206385                       # Per bank write bursts
system.mem_ctrl.perBankRdBursts::2             192322                       # Per bank write bursts
system.mem_ctrl.perBankRdBursts::3             219368                       # Per bank write bursts
system.mem_ctrl.perBankRdBursts::4              37889                       # Per bank write bursts
system.mem_ctrl.perBankRdBursts::5              10640                       # Per bank write bursts
system.mem_ctrl.perBankRdBursts::6              98810                       # Per bank write bursts
system.mem_ctrl.perBankRdBursts::7              86672                       # Per bank write bursts
system.mem_ctrl.perBankRdBursts::8             523356                       # Per bank write bursts
system.mem_ctrl.perBankRdBursts::9             145133                       # Per bank write bursts
system.mem_ctrl.perBankRdBursts::10             25045                       # Per bank write bursts
system.mem_ctrl.perBankRdBursts::11             53931                       # Per bank write bursts
system.mem_ctrl.perBankRdBursts::12            112073                       # Per bank write bursts
system.mem_ctrl.perBankRdBursts::13            676653                       # Per bank write bursts
system.mem_ctrl.perBankRdBursts::14            302972                       # Per bank write bursts
system.mem_ctrl.perBankRdBursts::15             49677                       # Per bank write bursts
system.mem_ctrl.perBankWrBursts::0                280                       # Per bank write bursts
system.mem_ctrl.perBankWrBursts::1                470                       # Per bank write bursts
system.mem_ctrl.perBankWrBursts::2                886                       # Per bank write bursts
system.mem_ctrl.perBankWrBursts::3                129                       # Per bank write bursts
system.mem_ctrl.perBankWrBursts::4                149                       # Per bank write bursts
system.mem_ctrl.perBankWrBursts::5                 79                       # Per bank write bursts
system.mem_ctrl.perBankWrBursts::6               2619                       # Per bank write bursts
system.mem_ctrl.perBankWrBursts::7                 20                       # Per bank write bursts
system.mem_ctrl.perBankWrBursts::8                211                       # Per bank write bursts
system.mem_ctrl.perBankWrBursts::9                156                       # Per bank write bursts
system.mem_ctrl.perBankWrBursts::10                92                       # Per bank write bursts
system.mem_ctrl.perBankWrBursts::11               150                       # Per bank write bursts
system.mem_ctrl.perBankWrBursts::12               151                       # Per bank write bursts
system.mem_ctrl.perBankWrBursts::13               347                       # Per bank write bursts
system.mem_ctrl.perBankWrBursts::14               540                       # Per bank write bursts
system.mem_ctrl.perBankWrBursts::15               337                       # Per bank write bursts
system.mem_ctrl.avgRdQLen                        1.00                       # Average read queue length when enqueuing
system.mem_ctrl.avgWrQLen                       25.46                       # Average write queue length when enqueuing
system.mem_ctrl.totQLat                    8833325750                       # Total ticks spent queuing
system.mem_ctrl.totBusLat                 14109065000                       # Total ticks spent in databus transfers
system.mem_ctrl.totMemAccLat              61742319500                       # Total ticks spent from burst creation until serviced by the DRAM
system.mem_ctrl.avgQLat                       3130.37                       # Average queueing delay per DRAM burst
system.mem_ctrl.avgBusLat                     5000.00                       # Average bus latency per DRAM burst
system.mem_ctrl.avgMemAccLat                 21880.37                       # Average memory access latency per DRAM burst
system.mem_ctrl.numRdRetry                          0                       # Number of times read queue was full causing retry
system.mem_ctrl.numWrRetry                          0                       # Number of times write queue was full causing retry
system.mem_ctrl.readRowHits                   2564825                       # Number of row buffer hits during reads
system.mem_ctrl.writeRowHits                     6059                       # Number of row buffer hits during writes
system.mem_ctrl.readRowHitRate                  90.89                       # Row buffer hit rate for reads
system.mem_ctrl.writeRowHitRate                 91.25                       # Row buffer hit rate for writes
system.mem_ctrl.readPktSize::0                  38680                       # Read request sizes (log2)
system.mem_ctrl.readPktSize::1                    658                       # Read request sizes (log2)
system.mem_ctrl.readPktSize::2                  54061                       # Read request sizes (log2)
system.mem_ctrl.readPktSize::3                2759005                       # Read request sizes (log2)
system.mem_ctrl.readPktSize::4                      0                       # Read request sizes (log2)
system.mem_ctrl.readPktSize::5                      0                       # Read request sizes (log2)
system.mem_ctrl.readPktSize::6                    847                       # Read request sizes (log2)
system.mem_ctrl.writePktSize::0                  9978                       # Write request sizes (log2)
system.mem_ctrl.writePktSize::1                   533                       # Write request sizes (log2)
system.mem_ctrl.writePktSize::2                 27215                       # Write request sizes (log2)
system.mem_ctrl.writePktSize::3                120579                       # Write request sizes (log2)
system.mem_ctrl.writePktSize::4                     0                       # Write request sizes (log2)
system.mem_ctrl.writePktSize::5                     0                       # Write request sizes (log2)
system.mem_ctrl.writePktSize::6                     0                       # Write request sizes (log2)
system.mem_ctrl.rdQLenPdf::0                  2821487                       # What read queue length does an incoming req see
system.mem_ctrl.rdQLenPdf::1                      326                       # What read queue length does an incoming req see
system.mem_ctrl.rdQLenPdf::2                        0                       # What read queue length does an incoming req see
system.mem_ctrl.rdQLenPdf::3                        0                       # What read queue length does an incoming req see
system.mem_ctrl.rdQLenPdf::4                        0                       # What read queue length does an incoming req see
system.mem_ctrl.rdQLenPdf::5                        0                       # What read queue length does an incoming req see
system.mem_ctrl.rdQLenPdf::6                        0                       # What read queue length does an incoming req see
system.mem_ctrl.rdQLenPdf::7                        0                       # What read queue length does an incoming req see
system.mem_ctrl.rdQLenPdf::8                        0                       # What read queue length does an incoming req see
system.mem_ctrl.rdQLenPdf::9                        0                       # What read queue length does an incoming req see
system.mem_ctrl.rdQLenPdf::10                       0                       # What read queue length does an incoming req see
system.mem_ctrl.rdQLenPdf::11                       0                       # What read queue length does an incoming req see
system.mem_ctrl.rdQLenPdf::12                       0                       # What read queue length does an incoming req see
system.mem_ctrl.rdQLenPdf::13                       0                       # What read queue length does an incoming req see
system.mem_ctrl.rdQLenPdf::14                       0                       # What read queue length does an incoming req see
system.mem_ctrl.rdQLenPdf::15                       0                       # What read queue length does an incoming req see
system.mem_ctrl.rdQLenPdf::16                       0                       # What read queue length does an incoming req see
system.mem_ctrl.rdQLenPdf::17                       0                       # What read queue length does an incoming req see
system.mem_ctrl.rdQLenPdf::18                       0                       # What read queue length does an incoming req see
system.mem_ctrl.rdQLenPdf::19                       0                       # What read queue length does an incoming req see
system.mem_ctrl.rdQLenPdf::20                       0                       # What read queue length does an incoming req see
system.mem_ctrl.rdQLenPdf::21                       0                       # What read queue length does an incoming req see
system.mem_ctrl.rdQLenPdf::22                       0                       # What read queue length does an incoming req see
system.mem_ctrl.rdQLenPdf::23                       0                       # What read queue length does an incoming req see
system.mem_ctrl.rdQLenPdf::24                       0                       # What read queue length does an incoming req see
system.mem_ctrl.rdQLenPdf::25                       0                       # What read queue length does an incoming req see
system.mem_ctrl.rdQLenPdf::26                       0                       # What read queue length does an incoming req see
system.mem_ctrl.rdQLenPdf::27                       0                       # What read queue length does an incoming req see
system.mem_ctrl.rdQLenPdf::28                       0                       # What read queue length does an incoming req see
system.mem_ctrl.rdQLenPdf::29                       0                       # What read queue length does an incoming req see
system.mem_ctrl.rdQLenPdf::30                       0                       # What read queue length does an incoming req see
system.mem_ctrl.rdQLenPdf::31                       0                       # What read queue length does an incoming req see
system.mem_ctrl.wrQLenPdf::0                        1                       # What write queue length does an incoming req see
system.mem_ctrl.wrQLenPdf::1                        1                       # What write queue length does an incoming req see
system.mem_ctrl.wrQLenPdf::2                        1                       # What write queue length does an incoming req see
system.mem_ctrl.wrQLenPdf::3                        1                       # What write queue length does an incoming req see
system.mem_ctrl.wrQLenPdf::4                        1                       # What write queue length does an incoming req see
system.mem_ctrl.wrQLenPdf::5                        1                       # What write queue length does an incoming req see
system.mem_ctrl.wrQLenPdf::6                        1                       # What write queue length does an incoming req see
system.mem_ctrl.wrQLenPdf::7                        1                       # What write queue length does an incoming req see
system.mem_ctrl.wrQLenPdf::8                        1                       # What write queue length does an incoming req see
system.mem_ctrl.wrQLenPdf::9                        1                       # What write queue length does an incoming req see
system.mem_ctrl.wrQLenPdf::10                       1                       # What write queue length does an incoming req see
system.mem_ctrl.wrQLenPdf::11                       1                       # What write queue length does an incoming req see
system.mem_ctrl.wrQLenPdf::12                       1                       # What write queue length does an incoming req see
system.mem_ctrl.wrQLenPdf::13                       1                       # What write queue length does an incoming req see
system.mem_ctrl.wrQLenPdf::14                       1                       # What write queue length does an incoming req see
system.mem_ctrl.wrQLenPdf::15                      11                       # What write queue length does an incoming req see
system.mem_ctrl.wrQLenPdf::16                      11                       # What write queue length does an incoming req see
system.mem_ctrl.wrQLenPdf::17                     413                       # What write queue length does an incoming req see
system.mem_ctrl.wrQLenPdf::18                     413                       # What write queue length does an incoming req see
system.mem_ctrl.wrQLenPdf::19                     415                       # What write queue length does an incoming req see
system.mem_ctrl.wrQLenPdf::20                     413                       # What write queue length does an incoming req see
system.mem_ctrl.wrQLenPdf::21                     415                       # What write queue length does an incoming req see
system.mem_ctrl.wrQLenPdf::22                     413                       # What write queue length does an incoming req see
system.mem_ctrl.wrQLenPdf::23                     413                       # What write queue length does an incoming req see
system.mem_ctrl.wrQLenPdf::24                     412                       # What write queue length does an incoming req see
system.mem_ctrl.wrQLenPdf::25                     412                       # What write queue length does an incoming req see
system.mem_ctrl.wrQLenPdf::26                     412                       # What write queue length does an incoming req see
system.mem_ctrl.wrQLenPdf::27                     412                       # What write queue length does an incoming req see
system.mem_ctrl.wrQLenPdf::28                     412                       # What write queue length does an incoming req see
system.mem_ctrl.wrQLenPdf::29                     412                       # What write queue length does an incoming req see
system.mem_ctrl.wrQLenPdf::30                     412                       # What write queue length does an incoming req see
system.mem_ctrl.wrQLenPdf::31                     412                       # What write queue length does an incoming req see
system.mem_ctrl.wrQLenPdf::32                     412                       # What write queue length does an incoming req see
system.mem_ctrl.wrQLenPdf::33                       0                       # What write queue length does an incoming req see
system.mem_ctrl.wrQLenPdf::34                       0                       # What write queue length does an incoming req see
system.mem_ctrl.wrQLenPdf::35                       0                       # What write queue length does an incoming req see
system.mem_ctrl.wrQLenPdf::36                       0                       # What write queue length does an incoming req see
system.mem_ctrl.wrQLenPdf::37                       0                       # What write queue length does an incoming req see
system.mem_ctrl.wrQLenPdf::38                       0                       # What write queue length does an incoming req see
system.mem_ctrl.wrQLenPdf::39                       0                       # What write queue length does an incoming req see
system.mem_ctrl.wrQLenPdf::40                       0                       # What write queue length does an incoming req see
system.mem_ctrl.wrQLenPdf::41                       0                       # What write queue length does an incoming req see
system.mem_ctrl.wrQLenPdf::42                       0                       # What write queue length does an incoming req see
system.mem_ctrl.wrQLenPdf::43                       0                       # What write queue length does an incoming req see
system.mem_ctrl.wrQLenPdf::44                       0                       # What write queue length does an incoming req see
system.mem_ctrl.wrQLenPdf::45                       0                       # What write queue length does an incoming req see
system.mem_ctrl.wrQLenPdf::46                       0                       # What write queue length does an incoming req see
system.mem_ctrl.wrQLenPdf::47                       0                       # What write queue length does an incoming req see
system.mem_ctrl.wrQLenPdf::48                       0                       # What write queue length does an incoming req see
system.mem_ctrl.wrQLenPdf::49                       0                       # What write queue length does an incoming req see
system.mem_ctrl.wrQLenPdf::50                       0                       # What write queue length does an incoming req see
system.mem_ctrl.wrQLenPdf::51                       0                       # What write queue length does an incoming req see
system.mem_ctrl.wrQLenPdf::52                       0                       # What write queue length does an incoming req see
system.mem_ctrl.wrQLenPdf::53                       0                       # What write queue length does an incoming req see
system.mem_ctrl.wrQLenPdf::54                       0                       # What write queue length does an incoming req see
system.mem_ctrl.wrQLenPdf::55                       0                       # What write queue length does an incoming req see
system.mem_ctrl.wrQLenPdf::56                       0                       # What write queue length does an incoming req see
system.mem_ctrl.wrQLenPdf::57                       0                       # What write queue length does an incoming req see
system.mem_ctrl.wrQLenPdf::58                       0                       # What write queue length does an incoming req see
system.mem_ctrl.wrQLenPdf::59                       0                       # What write queue length does an incoming req see
system.mem_ctrl.wrQLenPdf::60                       0                       # What write queue length does an incoming req see
system.mem_ctrl.wrQLenPdf::61                       0                       # What write queue length does an incoming req see
system.mem_ctrl.wrQLenPdf::62                       0                       # What write queue length does an incoming req see
system.mem_ctrl.wrQLenPdf::63                       0                       # What write queue length does an incoming req see
system.mem_ctrl.bytesPerActivate::samples       257544                       # Bytes accessed per row activation
system.mem_ctrl.bytesPerActivate::mean     702.864846                       # Bytes accessed per row activation
system.mem_ctrl.bytesPerActivate::gmean    511.311289                       # Bytes accessed per row activation
system.mem_ctrl.bytesPerActivate::stdev    388.224759                       # Bytes accessed per row activation
system.mem_ctrl.bytesPerActivate::0-127         27873     10.82%     10.82% # Bytes accessed per row activation
system.mem_ctrl.bytesPerActivate::128-255        27463     10.66%     21.49% # Bytes accessed per row activation
system.mem_ctrl.bytesPerActivate::256-383        18408      7.15%     28.63% # Bytes accessed per row activation
system.mem_ctrl.bytesPerActivate::384-511        11477      4.46%     33.09% # Bytes accessed per row activation
system.mem_ctrl.bytesPerActivate::512-639        11392      4.42%     37.51% # Bytes accessed per row activation
system.mem_ctrl.bytesPerActivate::640-767         7604      2.95%     40.47% # Bytes accessed per row activation
system.mem_ctrl.bytesPerActivate::768-895         9721      3.77%     44.24% # Bytes accessed per row activation
system.mem_ctrl.bytesPerActivate::896-1023         9275      3.60%     47.84% # Bytes accessed per row activation
system.mem_ctrl.bytesPerActivate::1024-1151       134331     52.16%    100.00% # Bytes accessed per row activation
system.mem_ctrl.bytesPerActivate::total        257544                       # Bytes accessed per row activation
system.mem_ctrl.rdPerTurnAround::samples          412                       # Reads before turning the bus around for writes
system.mem_ctrl.rdPerTurnAround::mean     4041.099515                       # Reads before turning the bus around for writes
system.mem_ctrl.rdPerTurnAround::gmean    2852.695947                       # Reads before turning the bus around for writes
system.mem_ctrl.rdPerTurnAround::stdev    3288.261655                       # Reads before turning the bus around for writes
system.mem_ctrl.rdPerTurnAround::0-1023            64     15.53%     15.53% # Reads before turning the bus around for writes
system.mem_ctrl.rdPerTurnAround::1024-2047           76     18.45%     33.98% # Reads before turning the bus around for writes
system.mem_ctrl.rdPerTurnAround::2048-3071           61     14.81%     48.79% # Reads before turning the bus around for writes
system.mem_ctrl.rdPerTurnAround::3072-4095           64     15.53%     64.32% # Reads before turning the bus around for writes
system.mem_ctrl.rdPerTurnAround::4096-5119           28      6.80%     71.12% # Reads before turning the bus around for writes
system.mem_ctrl.rdPerTurnAround::5120-6143           29      7.04%     78.16% # Reads before turning the bus around for writes
system.mem_ctrl.rdPerTurnAround::6144-7167           20      4.85%     83.01% # Reads before turning the bus around for writes
system.mem_ctrl.rdPerTurnAround::7168-8191           22      5.34%     88.35% # Reads before turning the bus around for writes
system.mem_ctrl.rdPerTurnAround::8192-9215           10      2.43%     90.78% # Reads before turning the bus around for writes
system.mem_ctrl.rdPerTurnAround::9216-10239           17      4.13%     94.90% # Reads before turning the bus around for writes
system.mem_ctrl.rdPerTurnAround::10240-11263            8      1.94%     96.84% # Reads before turning the bus around for writes
system.mem_ctrl.rdPerTurnAround::11264-12287            3      0.73%     97.57% # Reads before turning the bus around for writes
system.mem_ctrl.rdPerTurnAround::12288-13311            5      1.21%     98.79% # Reads before turning the bus around for writes
system.mem_ctrl.rdPerTurnAround::13312-14335            1      0.24%     99.03% # Reads before turning the bus around for writes
system.mem_ctrl.rdPerTurnAround::16384-17407            1      0.24%     99.27% # Reads before turning the bus around for writes
system.mem_ctrl.rdPerTurnAround::17408-18431            1      0.24%     99.51% # Reads before turning the bus around for writes
system.mem_ctrl.rdPerTurnAround::18432-19455            2      0.49%    100.00% # Reads before turning the bus around for writes
system.mem_ctrl.rdPerTurnAround::total            412                       # Reads before turning the bus around for writes
system.mem_ctrl.wrPerTurnAround::samples          412                       # Writes before turning the bus around for reads
system.mem_ctrl.wrPerTurnAround::mean       16.058252                       # Writes before turning the bus around for reads
system.mem_ctrl.wrPerTurnAround::gmean      16.054015                       # Writes before turning the bus around for reads
system.mem_ctrl.wrPerTurnAround::stdev       0.390277                       # Writes before turning the bus around for reads
system.mem_ctrl.wrPerTurnAround::16               402     97.57%     97.57% # Writes before turning the bus around for reads
system.mem_ctrl.wrPerTurnAround::18                 8      1.94%     99.51% # Writes before turning the bus around for reads
system.mem_ctrl.wrPerTurnAround::20                 2      0.49%    100.00% # Writes before turning the bus around for reads
system.mem_ctrl.wrPerTurnAround::total            412                       # Writes before turning the bus around for reads
system.mem_ctrl.bytesReadDRAM               180596032                       # Total number of bytes read from DRAM
system.mem_ctrl.bytesReadWrQ                  2012032                       # Total number of bytes read from write queue
system.mem_ctrl.bytesWritten                   423424                       # Total number of bytes written to DRAM
system.mem_ctrl.bytesReadSys                 22381929                       # Total read bytes from the system interface side
system.mem_ctrl.bytesWrittenSys               1084338                       # Total written bytes from the system interface side
system.mem_ctrl.avgRdBW                       1184.82                       # Average DRAM read bandwidth in MiByte/s
system.mem_ctrl.avgWrBW                          2.78                       # Average achieved write bandwidth in MiByte/s
system.mem_ctrl.avgRdBWSys                     146.84                       # Average system read bandwidth in MiByte/s
system.mem_ctrl.avgWrBWSys                       7.11                       # Average system write bandwidth in MiByte/s
system.mem_ctrl.peakBW                       12800.00                       # Theoretical peak bandwidth in MiByte/s
system.mem_ctrl.busUtil                          9.28                       # Data bus utilization in percentage
system.mem_ctrl.busUtilRead                      9.26                       # Data bus utilization in percentage for reads
system.mem_ctrl.busUtilWrite                     0.02                       # Data bus utilization in percentage for writes
system.mem_ctrl.totGap                   152424441000                       # Total gap between requests
system.mem_ctrl.avgGap                       50613.19                       # Average gap between requests
system.mem_ctrl.masterReadBytes::.cpu.inst     20807200                       # Per-master bytes read from memory
system.mem_ctrl.masterReadBytes::.cpu.data      1358380                       # Per-master bytes read from memory
system.mem_ctrl.masterWriteBytes::.cpu.data        48523                       # Per-master bytes write to memory
system.mem_ctrl.masterReadRate::.cpu.inst 136508222.384537905455                       # Per-master bytes read from memory rate (Bytes/sec)
system.mem_ctrl.masterReadRate::.cpu.data 8911820.865984302014                       # Per-master bytes read from memory rate (Bytes/sec)
system.mem_ctrl.masterWriteRate::.cpu.data 318341.173957328836                       # Per-master bytes write to memory rate (Bytes/sec)
system.mem_ctrl.masterReadAccesses::.cpu.inst      2600900                       # Per-master read serviced memory accesses
system.mem_ctrl.masterReadAccesses::.cpu.data       252351                       # Per-master read serviced memory accesses
system.mem_ctrl.masterWriteAccesses::.cpu.data       158305                       # Per-master write serviced memory accesses
system.mem_ctrl.masterReadTotalLat::.cpu.inst  56167704250                       # Per-master read total memory access latency
system.mem_ctrl.masterReadTotalLat::.cpu.data   5574615250                       # Per-master read total memory access latency
system.mem_ctrl.masterWriteTotalLat::.cpu.data 2378132324750                       # Per-master write total memory access latency
system.mem_ctrl.masterReadAvgLat::.cpu.inst     21595.49                       # Per-master read average memory access latency
system.mem_ctrl.masterReadAvgLat::.cpu.data     22090.72                       # Per-master read average memory access latency
system.mem_ctrl.masterWriteAvgLat::.cpu.data  15022471.34                       # Per-master write average memory access latency
system.mem_ctrl.pageHitRate                     90.89                       # Row buffer hit rate, read and write combined
system.mem_ctrl.rank1.actEnergy            1051864800                       # Energy for activate commands per rank (pJ)
system.mem_ctrl.rank1.preEnergy             559075605                       # Energy for precharge commands per rank (pJ)
system.mem_ctrl.rank1.readEnergy          13486317600                       # Energy for read commands per rank (pJ)
system.mem_ctrl.rank1.writeEnergy            10356480                       # Energy for write commands per rank (pJ)
system.mem_ctrl.rank1.refreshEnergy      12032192640.000002                       # Energy for refresh commands per rank (pJ)
system.mem_ctrl.rank1.actBackEnergy       57355708500                       # Energy for active background per rank (pJ)
system.mem_ctrl.rank1.preBackEnergy       10231471200                       # Energy for precharge background per rank (pJ)
system.mem_ctrl.rank1.actPowerDownEnergy            0                       # Energy for active power-down per rank (pJ)
system.mem_ctrl.rank1.prePowerDownEnergy            0                       # Energy for precharge power-down per rank (pJ)
system.mem_ctrl.rank1.selfRefreshEnergy             0                       # Energy for self refresh per rank (pJ)
system.mem_ctrl.rank1.totalEnergy         94726986825                       # Total energy per rank (pJ)
system.mem_ctrl.rank1.averagePower         621.468174                       # Core power per rank (mW)
system.mem_ctrl.rank1.totalIdleTime                 0                       # Total Idle time Per DRAM Rank
system.mem_ctrl.rank1.memoryStateTime::IDLE  25576825500                       # Time in different power states
system.mem_ctrl.rank1.memoryStateTime::REF   5089760000                       # Time in different power states
system.mem_ctrl.rank1.memoryStateTime::SREF            0                       # Time in different power states
system.mem_ctrl.rank1.memoryStateTime::PRE_PDN            0                       # Time in different power states
system.mem_ctrl.rank1.memoryStateTime::ACT 121757932500                       # Time in different power states
system.mem_ctrl.rank1.memoryStateTime::ACT_PDN            0                       # Time in different power states
system.mem_ctrl.rank0.actEnergy             787006500                       # Energy for activate commands per rank (pJ)
system.mem_ctrl.rank0.preEnergy             418303875                       # Energy for precharge commands per rank (pJ)
system.mem_ctrl.rank0.readEnergy           6661427220                       # Energy for read commands per rank (pJ)
system.mem_ctrl.rank0.writeEnergy            24179040                       # Energy for write commands per rank (pJ)
system.mem_ctrl.rank0.refreshEnergy      12032192640.000002                       # Energy for refresh commands per rank (pJ)
system.mem_ctrl.rank0.actBackEnergy       53068655850                       # Energy for active background per rank (pJ)
system.mem_ctrl.rank0.preBackEnergy       13841620800                       # Energy for precharge background per rank (pJ)
system.mem_ctrl.rank0.actPowerDownEnergy            0                       # Energy for active power-down per rank (pJ)
system.mem_ctrl.rank0.prePowerDownEnergy            0                       # Energy for precharge power-down per rank (pJ)
system.mem_ctrl.rank0.selfRefreshEnergy             0                       # Energy for self refresh per rank (pJ)
system.mem_ctrl.rank0.totalEnergy         86833385925                       # Total energy per rank (pJ)
system.mem_ctrl.rank0.averagePower         569.681224                       # Core power per rank (mW)
system.mem_ctrl.rank0.totalIdleTime                 0                       # Total Idle time Per DRAM Rank
system.mem_ctrl.rank0.memoryStateTime::IDLE  35326477750                       # Time in different power states
system.mem_ctrl.rank0.memoryStateTime::REF   5089760000                       # Time in different power states
system.mem_ctrl.rank0.memoryStateTime::SREF            0                       # Time in different power states
system.mem_ctrl.rank0.memoryStateTime::PRE_PDN            0                       # Time in different power states
system.mem_ctrl.rank0.memoryStateTime::ACT 112008280250                       # Time in different power states
system.mem_ctrl.rank0.memoryStateTime::ACT_PDN            0                       # Time in different power states
system.mem_ctrl.power_state.pwrStateResidencyTicks::UNDEFINED 152424518000                       # Cumulative time (in ticks) in various power states
system.cache.demand_hits::.cpu.data            328746                       # number of demand (read+write) hits
system.cache.demand_hits::total                328746                       # number of demand (read+write) hits
system.cache.overall_hits::.cpu.data           328746                       # number of overall hits
system.cache.overall_hits::total               328746                       # number of overall hits
system.cache.demand_misses::.cpu.data             847                       # number of demand (read+write) misses
system.cache.demand_misses::total                 847                       # number of demand (read+write) misses
system.cache.overall_misses::.cpu.data            847                       # number of overall misses
system.cache.overall_misses::total                847                       # number of overall misses
system.cache.demand_miss_latency::.cpu.data     55827000                       # number of demand (read+write) miss cycles
system.cache.demand_miss_latency::total      55827000                       # number of demand (read+write) miss cycles
system.cache.overall_miss_latency::.cpu.data     55827000                       # number of overall miss cycles
system.cache.overall_miss_latency::total     55827000                       # number of overall miss cycles
system.cache.demand_accesses::.cpu.data        329593                       # number of demand (read+write) accesses
system.cache.demand_accesses::total            329593                       # number of demand (read+write) accesses
system.cache.overall_accesses::.cpu.data       329593                       # number of overall (read+write) accesses
system.cache.overall_accesses::total           329593                       # number of overall (read+write) accesses
system.cache.demand_miss_rate::.cpu.data     0.002570                       # miss rate for demand accesses
system.cache.demand_miss_rate::total         0.002570                       # miss rate for demand accesses
system.cache.overall_miss_rate::.cpu.data     0.002570                       # miss rate for overall accesses
system.cache.overall_miss_rate::total        0.002570                       # miss rate for overall accesses
system.cache.demand_avg_miss_latency::.cpu.data 65911.452184                       # average overall miss latency
system.cache.demand_avg_miss_latency::total 65911.452184                       # average overall miss latency
system.cache.overall_avg_miss_latency::.cpu.data 65911.452184                       # average overall miss latency
system.cache.overall_avg_miss_latency::total 65911.452184                       # average overall miss latency
system.cache.blocked_cycles::no_mshrs               0                       # number of cycles access was blocked
system.cache.blocked_cycles::no_targets             0                       # number of cycles access was blocked
system.cache.blocked::no_mshrs                      0                       # number of cycles access was blocked
system.cache.blocked::no_targets                    0                       # number of cycles access was blocked
system.cache.avg_blocked_cycles::no_mshrs          nan                       # average number of cycles each access was blocked
system.cache.avg_blocked_cycles::no_targets          nan                       # average number of cycles each access was blocked
system.cache.demand_mshr_misses::.cpu.data          847                       # number of demand (read+write) MSHR misses
system.cache.demand_mshr_misses::total            847                       # number of demand (read+write) MSHR misses
system.cache.overall_mshr_misses::.cpu.data          847                       # number of overall MSHR misses
system.cache.overall_mshr_misses::total           847                       # number of overall MSHR misses
system.cache.demand_mshr_miss_latency::.cpu.data     54133000                       # number of demand (read+write) MSHR miss cycles
system.cache.demand_mshr_miss_latency::total     54133000                       # number of demand (read+write) MSHR miss cycles
system.cache.overall_mshr_miss_latency::.cpu.data     54133000                       # number of overall MSHR miss cycles
system.cache.overall_mshr_miss_latency::total     54133000                       # number of overall MSHR miss cycles
system.cache.demand_mshr_miss_rate::.cpu.data     0.002570                       # mshr miss rate for demand accesses
system.cache.demand_mshr_miss_rate::total     0.002570                       # mshr miss rate for demand accesses
system.cache.overall_mshr_miss_rate::.cpu.data     0.002570                       # mshr miss rate for overall accesses
system.cache.overall_mshr_miss_rate::total     0.002570                       # mshr miss rate for overall accesses
system.cache.demand_avg_mshr_miss_latency::.cpu.data 63911.452184                       # average overall mshr miss latency
system.cache.demand_avg_mshr_miss_latency::total 63911.452184                       # average overall mshr miss latency
system.cache.overall_avg_mshr_miss_latency::.cpu.data 63911.452184                       # average overall mshr miss latency
system.cache.overall_avg_mshr_miss_latency::total 63911.452184                       # average overall mshr miss latency
system.cache.replacements                           0                       # number of replacements
system.cache.ReadReq_hits::.cpu.data           216247                       # number of ReadReq hits
system.cache.ReadReq_hits::total               216247                       # number of ReadReq hits
system.cache.ReadReq_misses::.cpu.data            292                       # number of ReadReq misses
system.cache.ReadReq_misses::total                292                       # number of ReadReq misses
system.cache.ReadReq_miss_latency::.cpu.data     18582000                       # number of ReadReq miss cycles
system.cache.ReadReq_miss_latency::total     18582000                       # number of ReadReq miss cycles
system.cache.ReadReq_accesses::.cpu.data       216539                       # number of ReadReq accesses(hits+misses)
system.cache.ReadReq_accesses::total           216539                       # number of ReadReq accesses(hits+misses)
system.cache.ReadReq_miss_rate::.cpu.data     0.001348                       # miss rate for ReadReq accesses
system.cache.ReadReq_miss_rate::total        0.001348                       # miss rate for ReadReq accesses
system.cache.ReadReq_avg_miss_latency::.cpu.data 63636.986301                       # average ReadReq miss latency
system.cache.ReadReq_avg_miss_latency::total 63636.986301                       # average ReadReq miss latency
system.cache.ReadReq_mshr_misses::.cpu.data          292                       # number of ReadReq MSHR misses
system.cache.ReadReq_mshr_misses::total           292                       # number of ReadReq MSHR misses
system.cache.ReadReq_mshr_miss_latency::.cpu.data     17998000                       # number of ReadReq MSHR miss cycles
system.cache.ReadReq_mshr_miss_latency::total     17998000                       # number of ReadReq MSHR miss cycles
system.cache.ReadReq_mshr_miss_rate::.cpu.data     0.001348                       # mshr miss rate for ReadReq accesses
system.cache.ReadReq_mshr_miss_rate::total     0.001348                       # mshr miss rate for ReadReq accesses
system.cache.ReadReq_avg_mshr_miss_latency::.cpu.data 61636.986301                       # average ReadReq mshr miss latency
system.cache.ReadReq_avg_mshr_miss_latency::total 61636.986301                       # average ReadReq mshr miss latency
system.cache.WriteReq_hits::.cpu.data          112499                       # number of WriteReq hits
system.cache.WriteReq_hits::total              112499                       # number of WriteReq hits
system.cache.WriteReq_misses::.cpu.data           555                       # number of WriteReq misses
system.cache.WriteReq_misses::total               555                       # number of WriteReq misses
system.cache.WriteReq_miss_latency::.cpu.data     37245000                       # number of WriteReq miss cycles
system.cache.WriteReq_miss_latency::total     37245000                       # number of WriteReq miss cycles
system.cache.WriteReq_accesses::.cpu.data       113054                       # number of WriteReq accesses(hits+misses)
system.cache.WriteReq_accesses::total          113054                       # number of WriteReq accesses(hits+misses)
system.cache.WriteReq_miss_rate::.cpu.data     0.004909                       # miss rate for WriteReq accesses
system.cache.WriteReq_miss_rate::total       0.004909                       # miss rate for WriteReq accesses
system.cache.WriteReq_avg_miss_latency::.cpu.data 67108.108108                       # average WriteReq miss latency
system.cache.WriteReq_avg_miss_latency::total 67108.108108                       # average WriteReq miss latency
system.cache.WriteReq_mshr_misses::.cpu.data          555                       # number of WriteReq MSHR misses
system.cache.WriteReq_mshr_misses::total          555                       # number of WriteReq MSHR misses
system.cache.WriteReq_mshr_miss_latency::.cpu.data     36135000                       # number of WriteReq MSHR miss cycles
system.cache.WriteReq_mshr_miss_latency::total     36135000                       # number of WriteReq MSHR miss cycles
system.cache.WriteReq_mshr_miss_rate::.cpu.data     0.004909                       # mshr miss rate for WriteReq accesses
system.cache.WriteReq_mshr_miss_rate::total     0.004909                       # mshr miss rate for WriteReq accesses
system.cache.WriteReq_avg_mshr_miss_latency::.cpu.data 65108.108108                       # average WriteReq mshr miss latency
system.cache.WriteReq_avg_mshr_miss_latency::total 65108.108108                       # average WriteReq mshr miss latency
system.cache.power_state.pwrStateResidencyTicks::UNDEFINED 152424518000                       # Cumulative time (in ticks) in various power states
system.cache.tags.tagsinuse                214.787508                       # Cycle average of tags in use
system.cache.tags.total_refs                   329593                       # Total number of references to valid blocks.
system.cache.tags.sampled_refs                    847                       # Sample count of references to valid blocks.
system.cache.tags.avg_refs                 389.129870                       # Average number of references to valid blocks.
system.cache.tags.warmup_cycle            91414084000                       # Cycle when the warmup percentage was hit.
system.cache.tags.occ_blocks::.cpu.data    214.787508                       # Average occupied blocks per requestor
system.cache.tags.occ_percent::.cpu.data     0.006555                       # Average percentage of cache occupancy
system.cache.tags.occ_percent::total         0.006555                       # Average percentage of cache occupancy
system.cache.tags.occ_task_id_blocks::1024          847                       # Occupied blocks per task id
system.cache.tags.age_task_id_blocks_1024::1            2                       # Occupied blocks per task id
system.cache.tags.age_task_id_blocks_1024::2            8                       # Occupied blocks per task id
system.cache.tags.age_task_id_blocks_1024::3           65                       # Occupied blocks per task id
system.cache.tags.age_task_id_blocks_1024::4          772                       # Occupied blocks per task id
system.cache.tags.occ_task_id_percent::1024     0.025848                       # Percentage of cache occupancy per task id
system.cache.tags.tag_accesses                 330440                       # Number of tag accesses
system.cache.tags.data_accesses                330440                       # Number of data accesses
system.cache.tags.power_state.pwrStateResidencyTicks::UNDEFINED 152424518000                       # Cumulative time (in ticks) in various power states
system.clk_domain.clock                          1000                       # Clock period in ticks
system.clk_domain.voltage_domain.voltage            1                       # Voltage in Volts
system.cachebus.trans_dist::ReadReq            216539                       # Transaction distribution
system.cachebus.trans_dist::ReadResp           216539                       # Transaction distribution
system.cachebus.trans_dist::WriteReq           113054                       # Transaction distribution
system.cachebus.trans_dist::WriteResp          113054                       # Transaction distribution
system.cachebus.pkt_count_system.memobj.cache_side::system.cache.cpu_side       659186                       # Packet count per connected master and slave (bytes)
system.cachebus.pkt_size_system.memobj.cache_side::system.cache.cpu_side      1917208                       # Cumulative packet size per connected master and slave (bytes)
system.cachebus.snoops                              0                       # Total snoops (count)
system.cachebus.snoopTraffic                        0                       # Total snoop traffic (bytes)
system.cachebus.snoop_fanout::samples          329593                       # Request fanout histogram
system.cachebus.snoop_fanout::mean                  0                       # Request fanout histogram
system.cachebus.snoop_fanout::stdev                 0                       # Request fanout histogram
system.cachebus.snoop_fanout::underflows            0      0.00%      0.00% # Request fanout histogram
system.cachebus.snoop_fanout::0                329593    100.00%    100.00% # Request fanout histogram
system.cachebus.snoop_fanout::overflows             0      0.00%    100.00% # Request fanout histogram
system.cachebus.snoop_fanout::min_value             0                       # Request fanout histogram
system.cachebus.snoop_fanout::max_value             0                       # Request fanout histogram
system.cachebus.snoop_fanout::total            329593                       # Request fanout histogram
system.cachebus.reqLayer0.occupancy         442647000                       # Layer occupancy (ticks)
system.cachebus.reqLayer0.utilization             0.3                       # Layer utilization (%)
system.cachebus.respLayer0.occupancy        546132000                       # Layer occupancy (ticks)
system.cachebus.respLayer0.utilization            0.4                       # Layer utilization (%)
system.cachebus.power_state.pwrStateResidencyTicks::UNDEFINED 152424518000                       # Cumulative time (in ticks) in various power states
system.cpu.dtb.walker.power_state.pwrStateResidencyTicks::UNDEFINED 152424518000                       # Cumulative time (in ticks) in various power states
system.cpu.interrupts.clk_domain.clock          16000                       # Clock period in ticks
system.cpu.itb.walker.power_state.pwrStateResidencyTicks::UNDEFINED 152424518000                       # Cumulative time (in ticks) in various power states
system.cpu.power_state.numTransitions               1                       # Number of power state transitions
system.cpu.power_state.pwrStateResidencyTicks::ON 152424518000                       # Cumulative time (in ticks) in various power states

---------- End Simulation Statistics   ----------
