
---------- Begin Simulation Statistics ----------
final_tick                                 3965955000                       # Number of ticks from beginning of simulation (restored from checkpoints and never reset)
host_inst_rate                                 110001                       # Simulator instruction rate (inst/s)
host_mem_usage                               34264540                       # Number of bytes of host memory used
host_op_rate                                   208087                       # Simulator op (including micro ops) rate (op/s)
host_seconds                                     9.09                       # Real time elapsed on the host
host_tick_rate                              436196947                       # Simulator tick rate (ticks/s)
sim_freq                                 1000000000000                       # Frequency of simulated ticks
sim_insts                                     1000116                       # Number of instructions simulated
sim_ops                                       1891944                       # Number of ops (including micro ops) simulated
sim_seconds                                  0.003966                       # Number of seconds simulated
sim_ticks                                  3965955000                       # Number of ticks simulated
system.cpu.Branches                            223455                       # Number of branches fetched
system.cpu.committedInsts                     1000116                       # Number of instructions committed
system.cpu.committedOps                       1891944                       # Number of ops (including micro ops) committed
system.cpu.dtb.rdAccesses                      225137                       # TLB accesses on read requests
system.cpu.dtb.rdMisses                            69                       # TLB misses on read requests
system.cpu.dtb.wrAccesses                      144021                       # TLB accesses on write requests
system.cpu.dtb.wrMisses                            50                       # TLB misses on write requests
system.cpu.idle_fraction                            0                       # Percentage of idle cycles
system.cpu.itb.rdAccesses                           0                       # TLB accesses on read requests
system.cpu.itb.rdMisses                             0                       # TLB misses on read requests
system.cpu.itb.wrAccesses                     1309744                       # TLB accesses on write requests
system.cpu.itb.wrMisses                           156                       # TLB misses on write requests
system.cpu.not_idle_fraction                        1                       # Percentage of non-idle cycles
system.cpu.numCycles                          3965944                       # number of cpu cycles simulated
system.cpu.numWorkItemsCompleted                    0                       # number of work items this cpu completed
system.cpu.numWorkItemsStarted                      0                       # number of work items this cpu started
system.cpu.num_busy_cycles                    3965944                       # Number of busy cycles
system.cpu.num_cc_register_reads              1147006                       # number of times the CC registers were read
system.cpu.num_cc_register_writes              614914                       # number of times the CC registers were written
system.cpu.num_conditional_control_insts       165220                       # number of instructions that are conditional controls
system.cpu.num_fp_alu_accesses                  23266                       # Number of float alu accesses
system.cpu.num_fp_insts                         23266                       # number of float instructions
system.cpu.num_fp_register_reads                37360                       # number of times the floating registers were read
system.cpu.num_fp_register_writes               18378                       # number of times the floating registers were written
system.cpu.num_func_calls                       39472                       # number of times a function call or return occured
system.cpu.num_idle_cycles                          0                       # Number of idle cycles
system.cpu.num_int_alu_accesses               1870217                       # Number of integer alu accesses
system.cpu.num_int_insts                      1870217                       # number of integer instructions
system.cpu.num_int_register_reads             3664632                       # number of times the integer registers were read
system.cpu.num_int_register_writes            1502293                       # number of times the integer registers were written
system.cpu.num_load_insts                      224831                       # Number of load instructions
system.cpu.num_mem_refs                        368785                       # number of memory refs
system.cpu.num_store_insts                     143954                       # Number of store instructions
system.cpu.num_vec_alu_accesses                     0                       # Number of vector alu accesses
system.cpu.num_vec_insts                            0                       # number of vector instructions
system.cpu.num_vec_register_reads                   0                       # number of times the vector registers were read
system.cpu.num_vec_register_writes                  0                       # number of times the vector registers were written
system.cpu.op_class::No_OpClass                  7027      0.37%      0.37% # Class of executed instruction
system.cpu.op_class::IntAlu                   1497877     79.17%     79.54% # Class of executed instruction
system.cpu.op_class::IntMult                      177      0.01%     79.55% # Class of executed instruction
system.cpu.op_class::IntDiv                       210      0.01%     79.56% # Class of executed instruction
system.cpu.op_class::FloatAdd                      77      0.00%     79.57% # Class of executed instruction
system.cpu.op_class::FloatCmp                       0      0.00%     79.57% # Class of executed instruction
system.cpu.op_class::FloatCvt                       0      0.00%     79.57% # Class of executed instruction
system.cpu.op_class::FloatMult                      0      0.00%     79.57% # Class of executed instruction
system.cpu.op_class::FloatMultAcc                   0      0.00%     79.57% # Class of executed instruction
system.cpu.op_class::FloatDiv                       0      0.00%     79.57% # Class of executed instruction
system.cpu.op_class::FloatMisc                      0      0.00%     79.57% # Class of executed instruction
system.cpu.op_class::FloatSqrt                      0      0.00%     79.57% # Class of executed instruction
system.cpu.op_class::SimdAdd                       16      0.00%     79.57% # Class of executed instruction
system.cpu.op_class::SimdAddAcc                     0      0.00%     79.57% # Class of executed instruction
system.cpu.op_class::SimdAlu                     8578      0.45%     80.02% # Class of executed instruction
system.cpu.op_class::SimdCmp                      144      0.01%     80.03% # Class of executed instruction
system.cpu.op_class::SimdCvt                     4448      0.24%     80.26% # Class of executed instruction
system.cpu.op_class::SimdMisc                    4605      0.24%     80.51% # Class of executed instruction
system.cpu.op_class::SimdMult                       0      0.00%     80.51% # Class of executed instruction
system.cpu.op_class::SimdMultAcc                    0      0.00%     80.51% # Class of executed instruction
system.cpu.op_class::SimdShift                      0      0.00%     80.51% # Class of executed instruction
system.cpu.op_class::SimdShiftAcc                   0      0.00%     80.51% # Class of executed instruction
system.cpu.op_class::SimdDiv                        0      0.00%     80.51% # Class of executed instruction
system.cpu.op_class::SimdSqrt                       0      0.00%     80.51% # Class of executed instruction
system.cpu.op_class::SimdFloatAdd                   0      0.00%     80.51% # Class of executed instruction
system.cpu.op_class::SimdFloatAlu                   0      0.00%     80.51% # Class of executed instruction
system.cpu.op_class::SimdFloatCmp                   0      0.00%     80.51% # Class of executed instruction
system.cpu.op_class::SimdFloatCvt                  21      0.00%     80.51% # Class of executed instruction
system.cpu.op_class::SimdFloatDiv                   0      0.00%     80.51% # Class of executed instruction
system.cpu.op_class::SimdFloatMisc                  0      0.00%     80.51% # Class of executed instruction
system.cpu.op_class::SimdFloatMult                  0      0.00%     80.51% # Class of executed instruction
system.cpu.op_class::SimdFloatMultAcc               0      0.00%     80.51% # Class of executed instruction
system.cpu.op_class::SimdFloatSqrt                  0      0.00%     80.51% # Class of executed instruction
system.cpu.op_class::SimdReduceAdd                  0      0.00%     80.51% # Class of executed instruction
system.cpu.op_class::SimdReduceAlu                  0      0.00%     80.51% # Class of executed instruction
system.cpu.op_class::SimdReduceCmp                  0      0.00%     80.51% # Class of executed instruction
system.cpu.op_class::SimdFloatReduceAdd             0      0.00%     80.51% # Class of executed instruction
system.cpu.op_class::SimdFloatReduceCmp             0      0.00%     80.51% # Class of executed instruction
system.cpu.op_class::SimdAes                        0      0.00%     80.51% # Class of executed instruction
system.cpu.op_class::SimdAesMix                     0      0.00%     80.51% # Class of executed instruction
system.cpu.op_class::SimdSha1Hash                   0      0.00%     80.51% # Class of executed instruction
system.cpu.op_class::SimdSha1Hash2                  0      0.00%     80.51% # Class of executed instruction
system.cpu.op_class::SimdSha256Hash                 0      0.00%     80.51% # Class of executed instruction
system.cpu.op_class::SimdSha256Hash2                0      0.00%     80.51% # Class of executed instruction
system.cpu.op_class::SimdShaSigma2                  0      0.00%     80.51% # Class of executed instruction
system.cpu.op_class::SimdShaSigma3                  0      0.00%     80.51% # Class of executed instruction
system.cpu.op_class::SimdPredAlu                    0      0.00%     80.51% # Class of executed instruction
system.cpu.op_class::MemRead                   220484     11.65%     92.16% # Class of executed instruction
system.cpu.op_class::MemWrite                  143237      7.57%     99.73% # Class of executed instruction
system.cpu.op_class::FloatMemRead                4347      0.23%     99.96% # Class of executed instruction
system.cpu.op_class::FloatMemWrite                717      0.04%    100.00% # Class of executed instruction
system.cpu.op_class::IprAccess                      0      0.00%    100.00% # Class of executed instruction
system.cpu.op_class::InstPrefetch                   0      0.00%    100.00% # Class of executed instruction
system.cpu.op_class::total                    1891965                       # Class of executed instruction
system.cpu.workload.numSyscalls                    11                       # Number of system calls
system.dynamic_cache.flushTicks                     0                       # Ticks taken to flush
system.dynamic_cache.numFlushes                     0                       # Number of Flushes Taken
system.cache_small.demand_hits::.cpu.inst         7358                       # number of demand (read+write) hits
system.cache_small.demand_hits::.cpu.data         2621                       # number of demand (read+write) hits
system.cache_small.demand_hits::total            9979                       # number of demand (read+write) hits
system.cache_small.overall_hits::.cpu.inst         7358                       # number of overall hits
system.cache_small.overall_hits::.cpu.data         2621                       # number of overall hits
system.cache_small.overall_hits::total           9979                       # number of overall hits
system.cache_small.demand_misses::.cpu.inst         1968                       # number of demand (read+write) misses
system.cache_small.demand_misses::.cpu.data         1876                       # number of demand (read+write) misses
system.cache_small.demand_misses::total          3844                       # number of demand (read+write) misses
system.cache_small.overall_misses::.cpu.inst         1968                       # number of overall misses
system.cache_small.overall_misses::.cpu.data         1876                       # number of overall misses
system.cache_small.overall_misses::total         3844                       # number of overall misses
system.cache_small.demand_miss_latency::.cpu.inst    117563000                       # number of demand (read+write) miss cycles
system.cache_small.demand_miss_latency::.cpu.data    116006000                       # number of demand (read+write) miss cycles
system.cache_small.demand_miss_latency::total    233569000                       # number of demand (read+write) miss cycles
system.cache_small.overall_miss_latency::.cpu.inst    117563000                       # number of overall miss cycles
system.cache_small.overall_miss_latency::.cpu.data    116006000                       # number of overall miss cycles
system.cache_small.overall_miss_latency::total    233569000                       # number of overall miss cycles
system.cache_small.demand_accesses::.cpu.inst         9326                       # number of demand (read+write) accesses
system.cache_small.demand_accesses::.cpu.data         4497                       # number of demand (read+write) accesses
system.cache_small.demand_accesses::total        13823                       # number of demand (read+write) accesses
system.cache_small.overall_accesses::.cpu.inst         9326                       # number of overall (read+write) accesses
system.cache_small.overall_accesses::.cpu.data         4497                       # number of overall (read+write) accesses
system.cache_small.overall_accesses::total        13823                       # number of overall (read+write) accesses
system.cache_small.demand_miss_rate::.cpu.inst     0.211023                       # miss rate for demand accesses
system.cache_small.demand_miss_rate::.cpu.data     0.417167                       # miss rate for demand accesses
system.cache_small.demand_miss_rate::total     0.278087                       # miss rate for demand accesses
system.cache_small.overall_miss_rate::.cpu.inst     0.211023                       # miss rate for overall accesses
system.cache_small.overall_miss_rate::.cpu.data     0.417167                       # miss rate for overall accesses
system.cache_small.overall_miss_rate::total     0.278087                       # miss rate for overall accesses
system.cache_small.demand_avg_miss_latency::.cpu.inst 59737.296748                       # average overall miss latency
system.cache_small.demand_avg_miss_latency::.cpu.data 61836.886994                       # average overall miss latency
system.cache_small.demand_avg_miss_latency::total 60761.966701                       # average overall miss latency
system.cache_small.overall_avg_miss_latency::.cpu.inst 59737.296748                       # average overall miss latency
system.cache_small.overall_avg_miss_latency::.cpu.data 61836.886994                       # average overall miss latency
system.cache_small.overall_avg_miss_latency::total 60761.966701                       # average overall miss latency
system.cache_small.blocked_cycles::no_mshrs            0                       # number of cycles access was blocked
system.cache_small.blocked_cycles::no_targets            0                       # number of cycles access was blocked
system.cache_small.blocked::no_mshrs                0                       # number of cycles access was blocked
system.cache_small.blocked::no_targets              0                       # number of cycles access was blocked
system.cache_small.avg_blocked_cycles::no_mshrs          nan                       # average number of cycles each access was blocked
system.cache_small.avg_blocked_cycles::no_targets          nan                       # average number of cycles each access was blocked
system.cache_small.writebacks::.writebacks          129                       # number of writebacks
system.cache_small.writebacks::total              129                       # number of writebacks
system.cache_small.demand_mshr_misses::.cpu.inst         1968                       # number of demand (read+write) MSHR misses
system.cache_small.demand_mshr_misses::.cpu.data         1876                       # number of demand (read+write) MSHR misses
system.cache_small.demand_mshr_misses::total         3844                       # number of demand (read+write) MSHR misses
system.cache_small.overall_mshr_misses::.cpu.inst         1968                       # number of overall MSHR misses
system.cache_small.overall_mshr_misses::.cpu.data         1876                       # number of overall MSHR misses
system.cache_small.overall_mshr_misses::total         3844                       # number of overall MSHR misses
system.cache_small.demand_mshr_miss_latency::.cpu.inst    113627000                       # number of demand (read+write) MSHR miss cycles
system.cache_small.demand_mshr_miss_latency::.cpu.data    112254000                       # number of demand (read+write) MSHR miss cycles
system.cache_small.demand_mshr_miss_latency::total    225881000                       # number of demand (read+write) MSHR miss cycles
system.cache_small.overall_mshr_miss_latency::.cpu.inst    113627000                       # number of overall MSHR miss cycles
system.cache_small.overall_mshr_miss_latency::.cpu.data    112254000                       # number of overall MSHR miss cycles
system.cache_small.overall_mshr_miss_latency::total    225881000                       # number of overall MSHR miss cycles
system.cache_small.demand_mshr_miss_rate::.cpu.inst     0.211023                       # mshr miss rate for demand accesses
system.cache_small.demand_mshr_miss_rate::.cpu.data     0.417167                       # mshr miss rate for demand accesses
system.cache_small.demand_mshr_miss_rate::total     0.278087                       # mshr miss rate for demand accesses
system.cache_small.overall_mshr_miss_rate::.cpu.inst     0.211023                       # mshr miss rate for overall accesses
system.cache_small.overall_mshr_miss_rate::.cpu.data     0.417167                       # mshr miss rate for overall accesses
system.cache_small.overall_mshr_miss_rate::total     0.278087                       # mshr miss rate for overall accesses
system.cache_small.demand_avg_mshr_miss_latency::.cpu.inst 57737.296748                       # average overall mshr miss latency
system.cache_small.demand_avg_mshr_miss_latency::.cpu.data 59836.886994                       # average overall mshr miss latency
system.cache_small.demand_avg_mshr_miss_latency::total 58761.966701                       # average overall mshr miss latency
system.cache_small.overall_avg_mshr_miss_latency::.cpu.inst 57737.296748                       # average overall mshr miss latency
system.cache_small.overall_avg_mshr_miss_latency::.cpu.data 59836.886994                       # average overall mshr miss latency
system.cache_small.overall_avg_mshr_miss_latency::total 58761.966701                       # average overall mshr miss latency
system.cache_small.replacements                   838                       # number of replacements
system.cache_small.ReadReq_hits::.cpu.inst         7358                       # number of ReadReq hits
system.cache_small.ReadReq_hits::.cpu.data         2621                       # number of ReadReq hits
system.cache_small.ReadReq_hits::total           9979                       # number of ReadReq hits
system.cache_small.ReadReq_misses::.cpu.inst         1968                       # number of ReadReq misses
system.cache_small.ReadReq_misses::.cpu.data         1876                       # number of ReadReq misses
system.cache_small.ReadReq_misses::total         3844                       # number of ReadReq misses
system.cache_small.ReadReq_miss_latency::.cpu.inst    117563000                       # number of ReadReq miss cycles
system.cache_small.ReadReq_miss_latency::.cpu.data    116006000                       # number of ReadReq miss cycles
system.cache_small.ReadReq_miss_latency::total    233569000                       # number of ReadReq miss cycles
system.cache_small.ReadReq_accesses::.cpu.inst         9326                       # number of ReadReq accesses(hits+misses)
system.cache_small.ReadReq_accesses::.cpu.data         4497                       # number of ReadReq accesses(hits+misses)
system.cache_small.ReadReq_accesses::total        13823                       # number of ReadReq accesses(hits+misses)
system.cache_small.ReadReq_miss_rate::.cpu.inst     0.211023                       # miss rate for ReadReq accesses
system.cache_small.ReadReq_miss_rate::.cpu.data     0.417167                       # miss rate for ReadReq accesses
system.cache_small.ReadReq_miss_rate::total     0.278087                       # miss rate for ReadReq accesses
system.cache_small.ReadReq_avg_miss_latency::.cpu.inst 59737.296748                       # average ReadReq miss latency
system.cache_small.ReadReq_avg_miss_latency::.cpu.data 61836.886994                       # average ReadReq miss latency
system.cache_small.ReadReq_avg_miss_latency::total 60761.966701                       # average ReadReq miss latency
system.cache_small.ReadReq_mshr_misses::.cpu.inst         1968                       # number of ReadReq MSHR misses
system.cache_small.ReadReq_mshr_misses::.cpu.data         1876                       # number of ReadReq MSHR misses
system.cache_small.ReadReq_mshr_misses::total         3844                       # number of ReadReq MSHR misses
system.cache_small.ReadReq_mshr_miss_latency::.cpu.inst    113627000                       # number of ReadReq MSHR miss cycles
system.cache_small.ReadReq_mshr_miss_latency::.cpu.data    112254000                       # number of ReadReq MSHR miss cycles
system.cache_small.ReadReq_mshr_miss_latency::total    225881000                       # number of ReadReq MSHR miss cycles
system.cache_small.ReadReq_mshr_miss_rate::.cpu.inst     0.211023                       # mshr miss rate for ReadReq accesses
system.cache_small.ReadReq_mshr_miss_rate::.cpu.data     0.417167                       # mshr miss rate for ReadReq accesses
system.cache_small.ReadReq_mshr_miss_rate::total     0.278087                       # mshr miss rate for ReadReq accesses
system.cache_small.ReadReq_avg_mshr_miss_latency::.cpu.inst 57737.296748                       # average ReadReq mshr miss latency
system.cache_small.ReadReq_avg_mshr_miss_latency::.cpu.data 59836.886994                       # average ReadReq mshr miss latency
system.cache_small.ReadReq_avg_mshr_miss_latency::total 58761.966701                       # average ReadReq mshr miss latency
system.cache_small.WritebackDirty_hits::.writebacks         2849                       # number of WritebackDirty hits
system.cache_small.WritebackDirty_hits::total         2849                       # number of WritebackDirty hits
system.cache_small.WritebackDirty_accesses::.writebacks         2849                       # number of WritebackDirty accesses(hits+misses)
system.cache_small.WritebackDirty_accesses::total         2849                       # number of WritebackDirty accesses(hits+misses)
system.cache_small.power_state.pwrStateResidencyTicks::UNDEFINED   3965955000                       # Cumulative time (in ticks) in various power states
system.cache_small.tags.tagsinuse         2386.197488                       # Cycle average of tags in use
system.cache_small.tags.total_refs               1498                       # Total number of references to valid blocks.
system.cache_small.tags.sampled_refs              838                       # Sample count of references to valid blocks.
system.cache_small.tags.avg_refs             1.787589                       # Average number of references to valid blocks.
system.cache_small.tags.warmup_cycle            76000                       # Cycle when the warmup percentage was hit.
system.cache_small.tags.occ_blocks::.writebacks    11.787798                       # Average occupied blocks per requestor
system.cache_small.tags.occ_blocks::.cpu.inst  1251.079546                       # Average occupied blocks per requestor
system.cache_small.tags.occ_blocks::.cpu.data  1123.330144                       # Average occupied blocks per requestor
system.cache_small.tags.occ_percent::.writebacks     0.000719                       # Average percentage of cache occupancy
system.cache_small.tags.occ_percent::.cpu.inst     0.076360                       # Average percentage of cache occupancy
system.cache_small.tags.occ_percent::.cpu.data     0.068563                       # Average percentage of cache occupancy
system.cache_small.tags.occ_percent::total     0.145642                       # Average percentage of cache occupancy
system.cache_small.tags.occ_task_id_blocks::1024         3119                       # Occupied blocks per task id
system.cache_small.tags.age_task_id_blocks_1024::0            4                       # Occupied blocks per task id
system.cache_small.tags.age_task_id_blocks_1024::1           24                       # Occupied blocks per task id
system.cache_small.tags.age_task_id_blocks_1024::2          323                       # Occupied blocks per task id
system.cache_small.tags.age_task_id_blocks_1024::3         2768                       # Occupied blocks per task id
system.cache_small.tags.occ_task_id_percent::1024     0.190369                       # Percentage of cache occupancy per task id
system.cache_small.tags.tag_accesses            20629                       # Number of tag accesses
system.cache_small.tags.data_accesses           20629                       # Number of data accesses
system.cache_small.tags.power_state.pwrStateResidencyTicks::UNDEFINED   3965955000                       # Cumulative time (in ticks) in various power states
system.icache.demand_hits::.cpu.inst          1295858                       # number of demand (read+write) hits
system.icache.demand_hits::total              1295858                       # number of demand (read+write) hits
system.icache.overall_hits::.cpu.inst         1295858                       # number of overall hits
system.icache.overall_hits::total             1295858                       # number of overall hits
system.icache.demand_misses::.cpu.inst          13886                       # number of demand (read+write) misses
system.icache.demand_misses::total              13886                       # number of demand (read+write) misses
system.icache.overall_misses::.cpu.inst         13886                       # number of overall misses
system.icache.overall_misses::total             13886                       # number of overall misses
system.icache.demand_miss_latency::.cpu.inst    359549000                       # number of demand (read+write) miss cycles
system.icache.demand_miss_latency::total    359549000                       # number of demand (read+write) miss cycles
system.icache.overall_miss_latency::.cpu.inst    359549000                       # number of overall miss cycles
system.icache.overall_miss_latency::total    359549000                       # number of overall miss cycles
system.icache.demand_accesses::.cpu.inst      1309744                       # number of demand (read+write) accesses
system.icache.demand_accesses::total          1309744                       # number of demand (read+write) accesses
system.icache.overall_accesses::.cpu.inst      1309744                       # number of overall (read+write) accesses
system.icache.overall_accesses::total         1309744                       # number of overall (read+write) accesses
system.icache.demand_miss_rate::.cpu.inst     0.010602                       # miss rate for demand accesses
system.icache.demand_miss_rate::total        0.010602                       # miss rate for demand accesses
system.icache.overall_miss_rate::.cpu.inst     0.010602                       # miss rate for overall accesses
system.icache.overall_miss_rate::total       0.010602                       # miss rate for overall accesses
system.icache.demand_avg_miss_latency::.cpu.inst 25892.913726                       # average overall miss latency
system.icache.demand_avg_miss_latency::total 25892.913726                       # average overall miss latency
system.icache.overall_avg_miss_latency::.cpu.inst 25892.913726                       # average overall miss latency
system.icache.overall_avg_miss_latency::total 25892.913726                       # average overall miss latency
system.icache.blocked_cycles::no_mshrs              0                       # number of cycles access was blocked
system.icache.blocked_cycles::no_targets            0                       # number of cycles access was blocked
system.icache.blocked::no_mshrs                     0                       # number of cycles access was blocked
system.icache.blocked::no_targets                   0                       # number of cycles access was blocked
system.icache.avg_blocked_cycles::no_mshrs          nan                       # average number of cycles each access was blocked
system.icache.avg_blocked_cycles::no_targets          nan                       # average number of cycles each access was blocked
system.icache.demand_mshr_misses::.cpu.inst        13886                       # number of demand (read+write) MSHR misses
system.icache.demand_mshr_misses::total         13886                       # number of demand (read+write) MSHR misses
system.icache.overall_mshr_misses::.cpu.inst        13886                       # number of overall MSHR misses
system.icache.overall_mshr_misses::total        13886                       # number of overall MSHR misses
system.icache.demand_mshr_miss_latency::.cpu.inst    331777000                       # number of demand (read+write) MSHR miss cycles
system.icache.demand_mshr_miss_latency::total    331777000                       # number of demand (read+write) MSHR miss cycles
system.icache.overall_mshr_miss_latency::.cpu.inst    331777000                       # number of overall MSHR miss cycles
system.icache.overall_mshr_miss_latency::total    331777000                       # number of overall MSHR miss cycles
system.icache.demand_mshr_miss_rate::.cpu.inst     0.010602                       # mshr miss rate for demand accesses
system.icache.demand_mshr_miss_rate::total     0.010602                       # mshr miss rate for demand accesses
system.icache.overall_mshr_miss_rate::.cpu.inst     0.010602                       # mshr miss rate for overall accesses
system.icache.overall_mshr_miss_rate::total     0.010602                       # mshr miss rate for overall accesses
system.icache.demand_avg_mshr_miss_latency::.cpu.inst 23892.913726                       # average overall mshr miss latency
system.icache.demand_avg_mshr_miss_latency::total 23892.913726                       # average overall mshr miss latency
system.icache.overall_avg_mshr_miss_latency::.cpu.inst 23892.913726                       # average overall mshr miss latency
system.icache.overall_avg_mshr_miss_latency::total 23892.913726                       # average overall mshr miss latency
system.icache.replacements                      13630                       # number of replacements
system.icache.ReadReq_hits::.cpu.inst         1295858                       # number of ReadReq hits
system.icache.ReadReq_hits::total             1295858                       # number of ReadReq hits
system.icache.ReadReq_misses::.cpu.inst         13886                       # number of ReadReq misses
system.icache.ReadReq_misses::total             13886                       # number of ReadReq misses
system.icache.ReadReq_miss_latency::.cpu.inst    359549000                       # number of ReadReq miss cycles
system.icache.ReadReq_miss_latency::total    359549000                       # number of ReadReq miss cycles
system.icache.ReadReq_accesses::.cpu.inst      1309744                       # number of ReadReq accesses(hits+misses)
system.icache.ReadReq_accesses::total         1309744                       # number of ReadReq accesses(hits+misses)
system.icache.ReadReq_miss_rate::.cpu.inst     0.010602                       # miss rate for ReadReq accesses
system.icache.ReadReq_miss_rate::total       0.010602                       # miss rate for ReadReq accesses
system.icache.ReadReq_avg_miss_latency::.cpu.inst 25892.913726                       # average ReadReq miss latency
system.icache.ReadReq_avg_miss_latency::total 25892.913726                       # average ReadReq miss latency
system.icache.ReadReq_mshr_misses::.cpu.inst        13886                       # number of ReadReq MSHR misses
system.icache.ReadReq_mshr_misses::total        13886                       # number of ReadReq MSHR misses
system.icache.ReadReq_mshr_miss_latency::.cpu.inst    331777000                       # number of ReadReq MSHR miss cycles
system.icache.ReadReq_mshr_miss_latency::total    331777000                       # number of ReadReq MSHR miss cycles
system.icache.ReadReq_mshr_miss_rate::.cpu.inst     0.010602                       # mshr miss rate for ReadReq accesses
system.icache.ReadReq_mshr_miss_rate::total     0.010602                       # mshr miss rate for ReadReq accesses
system.icache.ReadReq_avg_mshr_miss_latency::.cpu.inst 23892.913726                       # average ReadReq mshr miss latency
system.icache.ReadReq_avg_mshr_miss_latency::total 23892.913726                       # average ReadReq mshr miss latency
system.icache.power_state.pwrStateResidencyTicks::UNDEFINED   3965955000                       # Cumulative time (in ticks) in various power states
system.icache.tags.tagsinuse               251.637786                       # Cycle average of tags in use
system.icache.tags.total_refs                 1220337                       # Total number of references to valid blocks.
system.icache.tags.sampled_refs                 13630                       # Sample count of references to valid blocks.
system.icache.tags.avg_refs                 89.533162                       # Average number of references to valid blocks.
system.icache.tags.warmup_cycle                 82000                       # Cycle when the warmup percentage was hit.
system.icache.tags.occ_blocks::.cpu.inst   251.637786                       # Average occupied blocks per requestor
system.icache.tags.occ_percent::.cpu.inst     0.982960                       # Average percentage of cache occupancy
system.icache.tags.occ_percent::total        0.982960                       # Average percentage of cache occupancy
system.icache.tags.occ_task_id_blocks::1024          256                       # Occupied blocks per task id
system.icache.tags.age_task_id_blocks_1024::0           13                       # Occupied blocks per task id
system.icache.tags.age_task_id_blocks_1024::1           35                       # Occupied blocks per task id
system.icache.tags.age_task_id_blocks_1024::2          166                       # Occupied blocks per task id
system.icache.tags.age_task_id_blocks_1024::3           42                       # Occupied blocks per task id
system.icache.tags.occ_task_id_percent::1024            1                       # Percentage of cache occupancy per task id
system.icache.tags.tag_accesses               1323630                       # Number of tag accesses
system.icache.tags.data_accesses              1323630                       # Number of data accesses
system.icache.tags.power_state.pwrStateResidencyTicks::UNDEFINED   3965955000                       # Cumulative time (in ticks) in various power states
system.membus.trans_dist::ReadReq                3844                       # Transaction distribution
system.membus.trans_dist::ReadResp               3844                       # Transaction distribution
system.membus.trans_dist::WritebackDirty          129                       # Transaction distribution
system.membus.pkt_count_system.cache_small.mem_side::system.mem_ctrl.port         7817                       # Packet count per connected master and slave (bytes)
system.membus.pkt_count_system.cache_small.mem_side::total         7817                       # Packet count per connected master and slave (bytes)
system.membus.pkt_count::total                   7817                       # Packet count per connected master and slave (bytes)
system.membus.pkt_size_system.cache_small.mem_side::system.mem_ctrl.port       254272                       # Cumulative packet size per connected master and slave (bytes)
system.membus.pkt_size_system.cache_small.mem_side::total       254272                       # Cumulative packet size per connected master and slave (bytes)
system.membus.pkt_size::total                  254272                       # Cumulative packet size per connected master and slave (bytes)
system.membus.reqLayer2.occupancy             4489000                       # Layer occupancy (ticks)
system.membus.reqLayer2.utilization               0.1                       # Layer utilization (%)
system.membus.respLayer1.occupancy           20541250                       # Layer occupancy (ticks)
system.membus.respLayer1.utilization              0.5                       # Layer utilization (%)
system.membus.power_state.pwrStateResidencyTicks::UNDEFINED   3965955000                       # Cumulative time (in ticks) in various power states
system.mem_ctrl.bytes_read::.cpu.inst          125952                       # Number of bytes read from this memory
system.mem_ctrl.bytes_read::.cpu.data          120064                       # Number of bytes read from this memory
system.mem_ctrl.bytes_read::total              246016                       # Number of bytes read from this memory
system.mem_ctrl.bytes_inst_read::.cpu.inst       125952                       # Number of instructions bytes read from this memory
system.mem_ctrl.bytes_inst_read::total         125952                       # Number of instructions bytes read from this memory
system.mem_ctrl.bytes_written::.writebacks         8256                       # Number of bytes written to this memory
system.mem_ctrl.bytes_written::total             8256                       # Number of bytes written to this memory
system.mem_ctrl.num_reads::.cpu.inst             1968                       # Number of read requests responded to by this memory
system.mem_ctrl.num_reads::.cpu.data             1876                       # Number of read requests responded to by this memory
system.mem_ctrl.num_reads::total                 3844                       # Number of read requests responded to by this memory
system.mem_ctrl.num_writes::.writebacks           129                       # Number of write requests responded to by this memory
system.mem_ctrl.num_writes::total                 129                       # Number of write requests responded to by this memory
system.mem_ctrl.bw_read::.cpu.inst           31758303                       # Total read bandwidth from this memory (bytes/s)
system.mem_ctrl.bw_read::.cpu.data           30273667                       # Total read bandwidth from this memory (bytes/s)
system.mem_ctrl.bw_read::total               62031970                       # Total read bandwidth from this memory (bytes/s)
system.mem_ctrl.bw_inst_read::.cpu.inst      31758303                       # Instruction read bandwidth from this memory (bytes/s)
system.mem_ctrl.bw_inst_read::total          31758303                       # Instruction read bandwidth from this memory (bytes/s)
system.mem_ctrl.bw_write::.writebacks         2081718                       # Write bandwidth from this memory (bytes/s)
system.mem_ctrl.bw_write::total               2081718                       # Write bandwidth from this memory (bytes/s)
system.mem_ctrl.bw_total::.writebacks         2081718                       # Total bandwidth to/from this memory (bytes/s)
system.mem_ctrl.bw_total::.cpu.inst          31758303                       # Total bandwidth to/from this memory (bytes/s)
system.mem_ctrl.bw_total::.cpu.data          30273667                       # Total bandwidth to/from this memory (bytes/s)
system.mem_ctrl.bw_total::total              64113688                       # Total bandwidth to/from this memory (bytes/s)
system.mem_ctrl.avgPriority_.writebacks::samples        48.00                       # Average QoS priority value for accepted requests
system.mem_ctrl.avgPriority_.cpu.inst::samples      1968.00                       # Average QoS priority value for accepted requests
system.mem_ctrl.avgPriority_.cpu.data::samples      1847.00                       # Average QoS priority value for accepted requests
system.mem_ctrl.priorityMinLatency       0.000000018750                       # per QoS priority minimum request to response latency (s)
system.mem_ctrl.priorityMaxLatency       0.002567294500                       # per QoS priority maximum request to response latency (s)
system.mem_ctrl.numReadWriteTurnArounds             1                       # Number of turnarounds from READ to WRITE
system.mem_ctrl.numWriteReadTurnArounds             1                       # Number of turnarounds from WRITE to READ
system.mem_ctrl.numStayReadState                 8776                       # Number of times bus staying in READ state
system.mem_ctrl.numStayWriteState                  17                       # Number of times bus staying in WRITE state
system.mem_ctrl.readReqs                         3844                       # Number of read requests accepted
system.mem_ctrl.writeReqs                         129                       # Number of write requests accepted
system.mem_ctrl.readBursts                       3844                       # Number of DRAM read bursts, including those serviced by the write queue
system.mem_ctrl.writeBursts                       129                       # Number of DRAM write bursts, including those merged in the write queue
system.mem_ctrl.servicedByWrQ                      29                       # Number of DRAM read bursts serviced by the write queue
system.mem_ctrl.mergedWrBursts                     81                       # Number of DRAM write bursts merged with an existing one
system.mem_ctrl.neitherReadNorWriteReqs             0                       # Number of requests that are neither read nor write
system.mem_ctrl.perBankRdBursts::0                491                       # Per bank write bursts
system.mem_ctrl.perBankRdBursts::1                307                       # Per bank write bursts
system.mem_ctrl.perBankRdBursts::2                234                       # Per bank write bursts
system.mem_ctrl.perBankRdBursts::3                218                       # Per bank write bursts
system.mem_ctrl.perBankRdBursts::4                176                       # Per bank write bursts
system.mem_ctrl.perBankRdBursts::5                 84                       # Per bank write bursts
system.mem_ctrl.perBankRdBursts::6                272                       # Per bank write bursts
system.mem_ctrl.perBankRdBursts::7                123                       # Per bank write bursts
system.mem_ctrl.perBankRdBursts::8                151                       # Per bank write bursts
system.mem_ctrl.perBankRdBursts::9                227                       # Per bank write bursts
system.mem_ctrl.perBankRdBursts::10               143                       # Per bank write bursts
system.mem_ctrl.perBankRdBursts::11               200                       # Per bank write bursts
system.mem_ctrl.perBankRdBursts::12               191                       # Per bank write bursts
system.mem_ctrl.perBankRdBursts::13               224                       # Per bank write bursts
system.mem_ctrl.perBankRdBursts::14               340                       # Per bank write bursts
system.mem_ctrl.perBankRdBursts::15               434                       # Per bank write bursts
system.mem_ctrl.perBankWrBursts::0                  0                       # Per bank write bursts
system.mem_ctrl.perBankWrBursts::1                  0                       # Per bank write bursts
system.mem_ctrl.perBankWrBursts::2                  1                       # Per bank write bursts
system.mem_ctrl.perBankWrBursts::3                  0                       # Per bank write bursts
system.mem_ctrl.perBankWrBursts::4                  0                       # Per bank write bursts
system.mem_ctrl.perBankWrBursts::5                  0                       # Per bank write bursts
system.mem_ctrl.perBankWrBursts::6                  1                       # Per bank write bursts
system.mem_ctrl.perBankWrBursts::7                  4                       # Per bank write bursts
system.mem_ctrl.perBankWrBursts::8                  5                       # Per bank write bursts
system.mem_ctrl.perBankWrBursts::9                  2                       # Per bank write bursts
system.mem_ctrl.perBankWrBursts::10                 4                       # Per bank write bursts
system.mem_ctrl.perBankWrBursts::11                 1                       # Per bank write bursts
system.mem_ctrl.perBankWrBursts::12                 0                       # Per bank write bursts
system.mem_ctrl.perBankWrBursts::13                 0                       # Per bank write bursts
system.mem_ctrl.perBankWrBursts::14                 0                       # Per bank write bursts
system.mem_ctrl.perBankWrBursts::15                 0                       # Per bank write bursts
system.mem_ctrl.avgRdQLen                        1.00                       # Average read queue length when enqueuing
system.mem_ctrl.avgWrQLen                       16.13                       # Average write queue length when enqueuing
system.mem_ctrl.totQLat                      34151250                       # Total ticks spent queuing
system.mem_ctrl.totBusLat                    19075000                       # Total ticks spent in databus transfers
system.mem_ctrl.totMemAccLat                105682500                       # Total ticks spent from burst creation until serviced by the DRAM
system.mem_ctrl.avgQLat                       8951.83                       # Average queueing delay per DRAM burst
system.mem_ctrl.avgBusLat                     5000.00                       # Average bus latency per DRAM burst
system.mem_ctrl.avgMemAccLat                 27701.83                       # Average memory access latency per DRAM burst
system.mem_ctrl.numRdRetry                          0                       # Number of times read queue was full causing retry
system.mem_ctrl.numWrRetry                          0                       # Number of times write queue was full causing retry
system.mem_ctrl.readRowHits                      2490                       # Number of row buffer hits during reads
system.mem_ctrl.writeRowHits                       11                       # Number of row buffer hits during writes
system.mem_ctrl.readRowHitRate                  65.27                       # Row buffer hit rate for reads
system.mem_ctrl.writeRowHitRate                 22.92                       # Row buffer hit rate for writes
system.mem_ctrl.readPktSize::0                      0                       # Read request sizes (log2)
system.mem_ctrl.readPktSize::1                      0                       # Read request sizes (log2)
system.mem_ctrl.readPktSize::2                      0                       # Read request sizes (log2)
system.mem_ctrl.readPktSize::3                      0                       # Read request sizes (log2)
system.mem_ctrl.readPktSize::4                      0                       # Read request sizes (log2)
system.mem_ctrl.readPktSize::5                      0                       # Read request sizes (log2)
system.mem_ctrl.readPktSize::6                   3844                       # Read request sizes (log2)
system.mem_ctrl.writePktSize::0                     0                       # Write request sizes (log2)
system.mem_ctrl.writePktSize::1                     0                       # Write request sizes (log2)
system.mem_ctrl.writePktSize::2                     0                       # Write request sizes (log2)
system.mem_ctrl.writePktSize::3                     0                       # Write request sizes (log2)
system.mem_ctrl.writePktSize::4                     0                       # Write request sizes (log2)
system.mem_ctrl.writePktSize::5                     0                       # Write request sizes (log2)
system.mem_ctrl.writePktSize::6                   129                       # Write request sizes (log2)
system.mem_ctrl.rdQLenPdf::0                     3809                       # What read queue length does an incoming req see
system.mem_ctrl.rdQLenPdf::1                        6                       # What read queue length does an incoming req see
system.mem_ctrl.rdQLenPdf::2                        0                       # What read queue length does an incoming req see
system.mem_ctrl.rdQLenPdf::3                        0                       # What read queue length does an incoming req see
system.mem_ctrl.rdQLenPdf::4                        0                       # What read queue length does an incoming req see
system.mem_ctrl.rdQLenPdf::5                        0                       # What read queue length does an incoming req see
system.mem_ctrl.rdQLenPdf::6                        0                       # What read queue length does an incoming req see
system.mem_ctrl.rdQLenPdf::7                        0                       # What read queue length does an incoming req see
system.mem_ctrl.rdQLenPdf::8                        0                       # What read queue length does an incoming req see
system.mem_ctrl.rdQLenPdf::9                        0                       # What read queue length does an incoming req see
system.mem_ctrl.rdQLenPdf::10                       0                       # What read queue length does an incoming req see
system.mem_ctrl.rdQLenPdf::11                       0                       # What read queue length does an incoming req see
system.mem_ctrl.rdQLenPdf::12                       0                       # What read queue length does an incoming req see
system.mem_ctrl.rdQLenPdf::13                       0                       # What read queue length does an incoming req see
system.mem_ctrl.rdQLenPdf::14                       0                       # What read queue length does an incoming req see
system.mem_ctrl.rdQLenPdf::15                       0                       # What read queue length does an incoming req see
system.mem_ctrl.rdQLenPdf::16                       0                       # What read queue length does an incoming req see
system.mem_ctrl.rdQLenPdf::17                       0                       # What read queue length does an incoming req see
system.mem_ctrl.rdQLenPdf::18                       0                       # What read queue length does an incoming req see
system.mem_ctrl.rdQLenPdf::19                       0                       # What read queue length does an incoming req see
system.mem_ctrl.rdQLenPdf::20                       0                       # What read queue length does an incoming req see
system.mem_ctrl.rdQLenPdf::21                       0                       # What read queue length does an incoming req see
system.mem_ctrl.rdQLenPdf::22                       0                       # What read queue length does an incoming req see
system.mem_ctrl.rdQLenPdf::23                       0                       # What read queue length does an incoming req see
system.mem_ctrl.rdQLenPdf::24                       0                       # What read queue length does an incoming req see
system.mem_ctrl.rdQLenPdf::25                       0                       # What read queue length does an incoming req see
system.mem_ctrl.rdQLenPdf::26                       0                       # What read queue length does an incoming req see
system.mem_ctrl.rdQLenPdf::27                       0                       # What read queue length does an incoming req see
system.mem_ctrl.rdQLenPdf::28                       0                       # What read queue length does an incoming req see
system.mem_ctrl.rdQLenPdf::29                       0                       # What read queue length does an incoming req see
system.mem_ctrl.rdQLenPdf::30                       0                       # What read queue length does an incoming req see
system.mem_ctrl.rdQLenPdf::31                       0                       # What read queue length does an incoming req see
system.mem_ctrl.wrQLenPdf::0                        1                       # What write queue length does an incoming req see
system.mem_ctrl.wrQLenPdf::1                        1                       # What write queue length does an incoming req see
system.mem_ctrl.wrQLenPdf::2                        1                       # What write queue length does an incoming req see
system.mem_ctrl.wrQLenPdf::3                        1                       # What write queue length does an incoming req see
system.mem_ctrl.wrQLenPdf::4                        1                       # What write queue length does an incoming req see
system.mem_ctrl.wrQLenPdf::5                        1                       # What write queue length does an incoming req see
system.mem_ctrl.wrQLenPdf::6                        1                       # What write queue length does an incoming req see
system.mem_ctrl.wrQLenPdf::7                        1                       # What write queue length does an incoming req see
system.mem_ctrl.wrQLenPdf::8                        1                       # What write queue length does an incoming req see
system.mem_ctrl.wrQLenPdf::9                        1                       # What write queue length does an incoming req see
system.mem_ctrl.wrQLenPdf::10                       1                       # What write queue length does an incoming req see
system.mem_ctrl.wrQLenPdf::11                       1                       # What write queue length does an incoming req see
system.mem_ctrl.wrQLenPdf::12                       1                       # What write queue length does an incoming req see
system.mem_ctrl.wrQLenPdf::13                       1                       # What write queue length does an incoming req see
system.mem_ctrl.wrQLenPdf::14                       1                       # What write queue length does an incoming req see
system.mem_ctrl.wrQLenPdf::15                       2                       # What write queue length does an incoming req see
system.mem_ctrl.wrQLenPdf::16                       2                       # What write queue length does an incoming req see
system.mem_ctrl.wrQLenPdf::17                       2                       # What write queue length does an incoming req see
system.mem_ctrl.wrQLenPdf::18                       2                       # What write queue length does an incoming req see
system.mem_ctrl.wrQLenPdf::19                       2                       # What write queue length does an incoming req see
system.mem_ctrl.wrQLenPdf::20                       2                       # What write queue length does an incoming req see
system.mem_ctrl.wrQLenPdf::21                       2                       # What write queue length does an incoming req see
system.mem_ctrl.wrQLenPdf::22                       2                       # What write queue length does an incoming req see
system.mem_ctrl.wrQLenPdf::23                       2                       # What write queue length does an incoming req see
system.mem_ctrl.wrQLenPdf::24                       2                       # What write queue length does an incoming req see
system.mem_ctrl.wrQLenPdf::25                       2                       # What write queue length does an incoming req see
system.mem_ctrl.wrQLenPdf::26                       2                       # What write queue length does an incoming req see
system.mem_ctrl.wrQLenPdf::27                       2                       # What write queue length does an incoming req see
system.mem_ctrl.wrQLenPdf::28                       2                       # What write queue length does an incoming req see
system.mem_ctrl.wrQLenPdf::29                       2                       # What write queue length does an incoming req see
system.mem_ctrl.wrQLenPdf::30                       1                       # What write queue length does an incoming req see
system.mem_ctrl.wrQLenPdf::31                       1                       # What write queue length does an incoming req see
system.mem_ctrl.wrQLenPdf::32                       1                       # What write queue length does an incoming req see
system.mem_ctrl.wrQLenPdf::33                       0                       # What write queue length does an incoming req see
system.mem_ctrl.wrQLenPdf::34                       0                       # What write queue length does an incoming req see
system.mem_ctrl.wrQLenPdf::35                       0                       # What write queue length does an incoming req see
system.mem_ctrl.wrQLenPdf::36                       0                       # What write queue length does an incoming req see
system.mem_ctrl.wrQLenPdf::37                       0                       # What write queue length does an incoming req see
system.mem_ctrl.wrQLenPdf::38                       0                       # What write queue length does an incoming req see
system.mem_ctrl.wrQLenPdf::39                       0                       # What write queue length does an incoming req see
system.mem_ctrl.wrQLenPdf::40                       0                       # What write queue length does an incoming req see
system.mem_ctrl.wrQLenPdf::41                       0                       # What write queue length does an incoming req see
system.mem_ctrl.wrQLenPdf::42                       0                       # What write queue length does an incoming req see
system.mem_ctrl.wrQLenPdf::43                       0                       # What write queue length does an incoming req see
system.mem_ctrl.wrQLenPdf::44                       0                       # What write queue length does an incoming req see
system.mem_ctrl.wrQLenPdf::45                       0                       # What write queue length does an incoming req see
system.mem_ctrl.wrQLenPdf::46                       0                       # What write queue length does an incoming req see
system.mem_ctrl.wrQLenPdf::47                       0                       # What write queue length does an incoming req see
system.mem_ctrl.wrQLenPdf::48                       0                       # What write queue length does an incoming req see
system.mem_ctrl.wrQLenPdf::49                       0                       # What write queue length does an incoming req see
system.mem_ctrl.wrQLenPdf::50                       0                       # What write queue length does an incoming req see
system.mem_ctrl.wrQLenPdf::51                       0                       # What write queue length does an incoming req see
system.mem_ctrl.wrQLenPdf::52                       0                       # What write queue length does an incoming req see
system.mem_ctrl.wrQLenPdf::53                       0                       # What write queue length does an incoming req see
system.mem_ctrl.wrQLenPdf::54                       0                       # What write queue length does an incoming req see
system.mem_ctrl.wrQLenPdf::55                       0                       # What write queue length does an incoming req see
system.mem_ctrl.wrQLenPdf::56                       0                       # What write queue length does an incoming req see
system.mem_ctrl.wrQLenPdf::57                       0                       # What write queue length does an incoming req see
system.mem_ctrl.wrQLenPdf::58                       0                       # What write queue length does an incoming req see
system.mem_ctrl.wrQLenPdf::59                       0                       # What write queue length does an incoming req see
system.mem_ctrl.wrQLenPdf::60                       0                       # What write queue length does an incoming req see
system.mem_ctrl.wrQLenPdf::61                       0                       # What write queue length does an incoming req see
system.mem_ctrl.wrQLenPdf::62                       0                       # What write queue length does an incoming req see
system.mem_ctrl.wrQLenPdf::63                       0                       # What write queue length does an incoming req see
system.mem_ctrl.bytesPerActivate::samples         1332                       # Bytes accessed per row activation
system.mem_ctrl.bytesPerActivate::mean     184.168168                       # Bytes accessed per row activation
system.mem_ctrl.bytesPerActivate::gmean    136.690676                       # Bytes accessed per row activation
system.mem_ctrl.bytesPerActivate::stdev    170.108257                       # Bytes accessed per row activation
system.mem_ctrl.bytesPerActivate::0-127           522     39.19%     39.19% # Bytes accessed per row activation
system.mem_ctrl.bytesPerActivate::128-255          440     33.03%     72.22% # Bytes accessed per row activation
system.mem_ctrl.bytesPerActivate::256-383          235     17.64%     89.86% # Bytes accessed per row activation
system.mem_ctrl.bytesPerActivate::384-511           63      4.73%     94.59% # Bytes accessed per row activation
system.mem_ctrl.bytesPerActivate::512-639           28      2.10%     96.70% # Bytes accessed per row activation
system.mem_ctrl.bytesPerActivate::640-767           13      0.98%     97.67% # Bytes accessed per row activation
system.mem_ctrl.bytesPerActivate::768-895            7      0.53%     98.20% # Bytes accessed per row activation
system.mem_ctrl.bytesPerActivate::896-1023           10      0.75%     98.95% # Bytes accessed per row activation
system.mem_ctrl.bytesPerActivate::1024-1151           14      1.05%    100.00% # Bytes accessed per row activation
system.mem_ctrl.bytesPerActivate::total          1332                       # Bytes accessed per row activation
system.mem_ctrl.rdPerTurnAround::samples            1                       # Reads before turning the bus around for writes
system.mem_ctrl.rdPerTurnAround::mean            2962                       # Reads before turning the bus around for writes
system.mem_ctrl.rdPerTurnAround::gmean    2962.000000                       # Reads before turning the bus around for writes
system.mem_ctrl.rdPerTurnAround::stdev            nan                       # Reads before turning the bus around for writes
system.mem_ctrl.rdPerTurnAround::2944-3071            1    100.00%    100.00% # Reads before turning the bus around for writes
system.mem_ctrl.rdPerTurnAround::total              1                       # Reads before turning the bus around for writes
system.mem_ctrl.wrPerTurnAround::samples            1                       # Writes before turning the bus around for reads
system.mem_ctrl.wrPerTurnAround::mean              18                       # Writes before turning the bus around for reads
system.mem_ctrl.wrPerTurnAround::gmean      18.000000                       # Writes before turning the bus around for reads
system.mem_ctrl.wrPerTurnAround::stdev            nan                       # Writes before turning the bus around for reads
system.mem_ctrl.wrPerTurnAround::18                 1    100.00%    100.00% # Writes before turning the bus around for reads
system.mem_ctrl.wrPerTurnAround::total              1                       # Writes before turning the bus around for reads
system.mem_ctrl.bytesReadDRAM                  244160                       # Total number of bytes read from DRAM
system.mem_ctrl.bytesReadWrQ                     1856                       # Total number of bytes read from write queue
system.mem_ctrl.bytesWritten                     1152                       # Total number of bytes written to DRAM
system.mem_ctrl.bytesReadSys                   246016                       # Total read bytes from the system interface side
system.mem_ctrl.bytesWrittenSys                  8256                       # Total written bytes from the system interface side
system.mem_ctrl.avgRdBW                         61.56                       # Average DRAM read bandwidth in MiByte/s
system.mem_ctrl.avgWrBW                          0.29                       # Average achieved write bandwidth in MiByte/s
system.mem_ctrl.avgRdBWSys                      62.03                       # Average system read bandwidth in MiByte/s
system.mem_ctrl.avgWrBWSys                       2.08                       # Average system write bandwidth in MiByte/s
system.mem_ctrl.peakBW                       12800.00                       # Theoretical peak bandwidth in MiByte/s
system.mem_ctrl.busUtil                          0.48                       # Data bus utilization in percentage
system.mem_ctrl.busUtilRead                      0.48                       # Data bus utilization in percentage for reads
system.mem_ctrl.busUtilWrite                     0.00                       # Data bus utilization in percentage for writes
system.mem_ctrl.totGap                     3961841000                       # Total gap between requests
system.mem_ctrl.avgGap                      997191.29                       # Average gap between requests
system.mem_ctrl.masterReadBytes::.cpu.inst       125952                       # Per-master bytes read from memory
system.mem_ctrl.masterReadBytes::.cpu.data       118208                       # Per-master bytes read from memory
system.mem_ctrl.masterWriteBytes::.writebacks         1152                       # Per-master bytes write to memory
system.mem_ctrl.masterReadRate::.cpu.inst 31758302.855176117271                       # Per-master bytes read from memory rate (Bytes/sec)
system.mem_ctrl.masterReadRate::.cpu.data 29805683.624751161784                       # Per-master bytes read from memory rate (Bytes/sec)
system.mem_ctrl.masterWriteRate::.writebacks 290472.282211976650                       # Per-master bytes write to memory rate (Bytes/sec)
system.mem_ctrl.masterReadAccesses::.cpu.inst         1968                       # Per-master read serviced memory accesses
system.mem_ctrl.masterReadAccesses::.cpu.data         1876                       # Per-master read serviced memory accesses
system.mem_ctrl.masterWriteAccesses::.writebacks          129                       # Per-master write serviced memory accesses
system.mem_ctrl.masterReadTotalLat::.cpu.inst     51954250                       # Per-master read total memory access latency
system.mem_ctrl.masterReadTotalLat::.cpu.data     53728250                       # Per-master read total memory access latency
system.mem_ctrl.masterWriteTotalLat::.writebacks  15627602000                       # Per-master write total memory access latency
system.mem_ctrl.masterReadAvgLat::.cpu.inst     26399.52                       # Per-master read average memory access latency
system.mem_ctrl.masterReadAvgLat::.cpu.data     28639.79                       # Per-master read average memory access latency
system.mem_ctrl.masterWriteAvgLat::.writebacks 121144201.55                       # Per-master write average memory access latency
system.mem_ctrl.pageHitRate                     64.74                       # Row buffer hit rate, read and write combined
system.mem_ctrl.rank1.actEnergy               5069400                       # Energy for activate commands per rank (pJ)
system.mem_ctrl.rank1.preEnergy               2694450                       # Energy for precharge commands per rank (pJ)
system.mem_ctrl.rank1.readEnergy             13637400                       # Energy for read commands per rank (pJ)
system.mem_ctrl.rank1.writeEnergy               62640                       # Energy for write commands per rank (pJ)
system.mem_ctrl.rank1.refreshEnergy      312851760.000000                       # Energy for refresh commands per rank (pJ)
system.mem_ctrl.rank1.actBackEnergy        1061888910                       # Energy for active background per rank (pJ)
system.mem_ctrl.rank1.preBackEnergy         628704480                       # Energy for precharge background per rank (pJ)
system.mem_ctrl.rank1.actPowerDownEnergy            0                       # Energy for active power-down per rank (pJ)
system.mem_ctrl.rank1.prePowerDownEnergy            0                       # Energy for precharge power-down per rank (pJ)
system.mem_ctrl.rank1.selfRefreshEnergy             0                       # Energy for self refresh per rank (pJ)
system.mem_ctrl.rank1.totalEnergy          2024909040                       # Total energy per rank (pJ)
system.mem_ctrl.rank1.averagePower         510.572873                       # Core power per rank (mW)
system.mem_ctrl.rank1.totalIdleTime                 0                       # Total Idle time Per DRAM Rank
system.mem_ctrl.rank1.memoryStateTime::IDLE   1624596500                       # Time in different power states
system.mem_ctrl.rank1.memoryStateTime::REF    132340000                       # Time in different power states
system.mem_ctrl.rank1.memoryStateTime::SREF            0                       # Time in different power states
system.mem_ctrl.rank1.memoryStateTime::PRE_PDN            0                       # Time in different power states
system.mem_ctrl.rank1.memoryStateTime::ACT   2209018500                       # Time in different power states
system.mem_ctrl.rank1.memoryStateTime::ACT_PDN            0                       # Time in different power states
system.mem_ctrl.rank0.actEnergy               4441080                       # Energy for activate commands per rank (pJ)
system.mem_ctrl.rank0.preEnergy               2360490                       # Energy for precharge commands per rank (pJ)
system.mem_ctrl.rank0.readEnergy             13601700                       # Energy for read commands per rank (pJ)
system.mem_ctrl.rank0.writeEnergy               31320                       # Energy for write commands per rank (pJ)
system.mem_ctrl.rank0.refreshEnergy      312851760.000000                       # Energy for refresh commands per rank (pJ)
system.mem_ctrl.rank0.actBackEnergy         666542040                       # Energy for active background per rank (pJ)
system.mem_ctrl.rank0.preBackEnergy         961628160                       # Energy for precharge background per rank (pJ)
system.mem_ctrl.rank0.actPowerDownEnergy            0                       # Energy for active power-down per rank (pJ)
system.mem_ctrl.rank0.prePowerDownEnergy            0                       # Energy for precharge power-down per rank (pJ)
system.mem_ctrl.rank0.selfRefreshEnergy             0                       # Energy for self refresh per rank (pJ)
system.mem_ctrl.rank0.totalEnergy          1961456550                       # Total energy per rank (pJ)
system.mem_ctrl.rank0.averagePower         494.573577                       # Core power per rank (mW)
system.mem_ctrl.rank0.totalIdleTime                 0                       # Total Idle time Per DRAM Rank
system.mem_ctrl.rank0.memoryStateTime::IDLE   2493514000                       # Time in different power states
system.mem_ctrl.rank0.memoryStateTime::REF    132340000                       # Time in different power states
system.mem_ctrl.rank0.memoryStateTime::SREF            0                       # Time in different power states
system.mem_ctrl.rank0.memoryStateTime::PRE_PDN            0                       # Time in different power states
system.mem_ctrl.rank0.memoryStateTime::ACT   1340101000                       # Time in different power states
system.mem_ctrl.rank0.memoryStateTime::ACT_PDN            0                       # Time in different power states
system.mem_ctrl.power_state.pwrStateResidencyTicks::UNDEFINED   3965955000                       # Cumulative time (in ticks) in various power states
system.cache_medium.blocked_cycles::no_mshrs            0                       # number of cycles access was blocked
system.cache_medium.blocked_cycles::no_targets            0                       # number of cycles access was blocked
system.cache_medium.blocked::no_mshrs               0                       # number of cycles access was blocked
system.cache_medium.blocked::no_targets             0                       # number of cycles access was blocked
system.cache_medium.avg_blocked_cycles::no_mshrs          nan                       # average number of cycles each access was blocked
system.cache_medium.avg_blocked_cycles::no_targets          nan                       # average number of cycles each access was blocked
system.cache_medium.replacements                    0                       # number of replacements
system.cache_medium.power_state.pwrStateResidencyTicks::UNDEFINED   3965955000                       # Cumulative time (in ticks) in various power states
system.cache_medium.tags.tagsinuse                  0                       # Cycle average of tags in use
system.cache_medium.tags.total_refs                 0                       # Total number of references to valid blocks.
system.cache_medium.tags.sampled_refs               0                       # Sample count of references to valid blocks.
system.cache_medium.tags.avg_refs                 nan                       # Average number of references to valid blocks.
system.cache_medium.tags.warmup_cycle               0                       # Cycle when the warmup percentage was hit.
system.cache_medium.tags.tag_accesses               0                       # Number of tag accesses
system.cache_medium.tags.data_accesses              0                       # Number of data accesses
system.cache_medium.tags.power_state.pwrStateResidencyTicks::UNDEFINED   3965955000                       # Cumulative time (in ticks) in various power states
system.clk_domain.clock                          1000                       # Clock period in ticks
system.clk_domain.voltage_domain.voltage            1                       # Voltage in Volts
system.dcache.demand_hits::.cpu.data           359992                       # number of demand (read+write) hits
system.dcache.demand_hits::total               359992                       # number of demand (read+write) hits
system.dcache.overall_hits::.cpu.data          360067                       # number of overall hits
system.dcache.overall_hits::total              360067                       # number of overall hits
system.dcache.demand_misses::.cpu.data           9070                       # number of demand (read+write) misses
system.dcache.demand_misses::total               9070                       # number of demand (read+write) misses
system.dcache.overall_misses::.cpu.data          9070                       # number of overall misses
system.dcache.overall_misses::total              9070                       # number of overall misses
system.dcache.demand_miss_latency::.cpu.data    266413000                       # number of demand (read+write) miss cycles
system.dcache.demand_miss_latency::total    266413000                       # number of demand (read+write) miss cycles
system.dcache.overall_miss_latency::.cpu.data    266413000                       # number of overall miss cycles
system.dcache.overall_miss_latency::total    266413000                       # number of overall miss cycles
system.dcache.demand_accesses::.cpu.data       369062                       # number of demand (read+write) accesses
system.dcache.demand_accesses::total           369062                       # number of demand (read+write) accesses
system.dcache.overall_accesses::.cpu.data       369137                       # number of overall (read+write) accesses
system.dcache.overall_accesses::total          369137                       # number of overall (read+write) accesses
system.dcache.demand_miss_rate::.cpu.data     0.024576                       # miss rate for demand accesses
system.dcache.demand_miss_rate::total        0.024576                       # miss rate for demand accesses
system.dcache.overall_miss_rate::.cpu.data     0.024571                       # miss rate for overall accesses
system.dcache.overall_miss_rate::total       0.024571                       # miss rate for overall accesses
system.dcache.demand_avg_miss_latency::.cpu.data 29372.987872                       # average overall miss latency
system.dcache.demand_avg_miss_latency::total 29372.987872                       # average overall miss latency
system.dcache.overall_avg_miss_latency::.cpu.data 29372.987872                       # average overall miss latency
system.dcache.overall_avg_miss_latency::total 29372.987872                       # average overall miss latency
system.dcache.blocked_cycles::no_mshrs              0                       # number of cycles access was blocked
system.dcache.blocked_cycles::no_targets            0                       # number of cycles access was blocked
system.dcache.blocked::no_mshrs                     0                       # number of cycles access was blocked
system.dcache.blocked::no_targets                   0                       # number of cycles access was blocked
system.dcache.avg_blocked_cycles::no_mshrs          nan                       # average number of cycles each access was blocked
system.dcache.avg_blocked_cycles::no_targets          nan                       # average number of cycles each access was blocked
system.dcache.writebacks::.writebacks            3855                       # number of writebacks
system.dcache.writebacks::total                  3855                       # number of writebacks
system.dcache.demand_mshr_misses::.cpu.data         9070                       # number of demand (read+write) MSHR misses
system.dcache.demand_mshr_misses::total          9070                       # number of demand (read+write) MSHR misses
system.dcache.overall_mshr_misses::.cpu.data         9070                       # number of overall MSHR misses
system.dcache.overall_mshr_misses::total         9070                       # number of overall MSHR misses
system.dcache.demand_mshr_miss_latency::.cpu.data    248275000                       # number of demand (read+write) MSHR miss cycles
system.dcache.demand_mshr_miss_latency::total    248275000                       # number of demand (read+write) MSHR miss cycles
system.dcache.overall_mshr_miss_latency::.cpu.data    248275000                       # number of overall MSHR miss cycles
system.dcache.overall_mshr_miss_latency::total    248275000                       # number of overall MSHR miss cycles
system.dcache.demand_mshr_miss_rate::.cpu.data     0.024576                       # mshr miss rate for demand accesses
[...]
system.dcache.tags.age_task_id_blocks_1024::2          107                       # Occupied blocks per task id
system.dcache.tags.age_task_id_blocks_1024::3           94                       # Occupied blocks per task id
system.dcache.tags.occ_task_id_percent::1024            1                       # Percentage of cache occupancy per task id
system.dcache.tags.tag_accesses               2705588                       # Number of tag accesses
system.dcache.tags.data_accesses              2705588                       # Number of data accesses
system.dcache.tags.power_state.pwrStateResidencyTicks::UNDEFINED  27141880000                       # Cumulative time (in ticks) in various power states
system.cache_large.blocked_cycles::no_mshrs            0                       # number of cycles access was blocked
system.cache_large.blocked_cycles::no_targets            0                       # number of cycles access was blocked
system.cache_large.blocked::no_mshrs                0                       # number of cycles access was blocked
system.cache_large.blocked::no_targets              0                       # number of cycles access was blocked
system.cache_large.avg_blocked_cycles::no_mshrs          nan                       # average number of cycles each access was blocked
system.cache_large.avg_blocked_cycles::no_targets          nan                       # average number of cycles each access was blocked
system.cache_large.replacements                     0                       # number of replacements
system.cache_large.power_state.pwrStateResidencyTicks::UNDEFINED  27141880000                       # Cumulative time (in ticks) in various power states
system.cache_large.tags.tagsinuse                   0                       # Cycle average of tags in use
system.cache_large.tags.total_refs                  0                       # Total number of references to valid blocks.
system.cache_large.tags.sampled_refs                0                       # Sample count of references to valid blocks.
system.cache_large.tags.avg_refs                  nan                       # Average number of references to valid blocks.
system.cache_large.tags.warmup_cycle                0                       # Cycle when the warmup percentage was hit.
system.cache_large.tags.tag_accesses                0                       # Number of tag accesses
system.cache_large.tags.data_accesses               0                       # Number of data accesses
system.cache_large.tags.power_state.pwrStateResidencyTicks::UNDEFINED  27141880000                       # Cumulative time (in ticks) in various power states
system.l2cache.demand_hits::.cpu.inst           33765                       # number of demand (read+write) hits
system.l2cache.demand_hits::.cpu.data           36170                       # number of demand (read+write) hits
system.l2cache.demand_hits::total               69935                       # number of demand (read+write) hits
system.l2cache.overall_hits::.cpu.inst          33765                       # number of overall hits
system.l2cache.overall_hits::.cpu.data          36170                       # number of overall hits
system.l2cache.overall_hits::total              69935                       # number of overall hits
system.l2cache.demand_misses::.cpu.inst         78567                       # number of demand (read+write) misses
system.l2cache.demand_misses::.cpu.data         38298                       # number of demand (read+write) misses
system.l2cache.demand_misses::total            116865                       # number of demand (read+write) misses
system.l2cache.overall_misses::.cpu.inst        78567                       # number of overall misses
system.l2cache.overall_misses::.cpu.data        38298                       # number of overall misses
system.l2cache.overall_misses::total           116865                       # number of overall misses
system.l2cache.demand_miss_latency::.cpu.inst   1278725000                       # number of demand (read+write) miss cycles
system.l2cache.demand_miss_latency::.cpu.data    857224000                       # number of demand (read+write) miss cycles
system.l2cache.demand_miss_latency::total   2135949000                       # number of demand (read+write) miss cycles
system.l2cache.overall_miss_latency::.cpu.inst   1278725000                       # number of overall miss cycles
system.l2cache.overall_miss_latency::.cpu.data    857224000                       # number of overall miss cycles
system.l2cache.overall_miss_latency::total   2135949000                       # number of overall miss cycles
system.l2cache.demand_accesses::.cpu.inst       112332                       # number of demand (read+write) accesses
system.l2cache.demand_accesses::.cpu.data        74468                       # number of demand (read+write) accesses
system.l2cache.demand_accesses::total          186800                       # number of demand (read+write) accesses
system.l2cache.overall_accesses::.cpu.inst       112332                       # number of overall (read+write) accesses
system.l2cache.overall_accesses::.cpu.data        74468                       # number of overall (read+write) accesses
system.l2cache.overall_accesses::total         186800                       # number of overall (read+write) accesses
system.l2cache.demand_miss_rate::.cpu.inst     0.699418                       # miss rate for demand accesses
system.l2cache.demand_miss_rate::.cpu.data     0.514288                       # miss rate for demand accesses
system.l2cache.demand_miss_rate::total       0.625616                       # miss rate for demand accesses
system.l2cache.overall_miss_rate::.cpu.inst     0.699418                       # miss rate for overall accesses
system.l2cache.overall_miss_rate::.cpu.data     0.514288                       # miss rate for overall accesses
system.l2cache.overall_miss_rate::total      0.625616                       # miss rate for overall accesses
system.l2cache.demand_avg_miss_latency::.cpu.inst 16275.599170                       # average overall miss latency
system.l2cache.demand_avg_miss_latency::.cpu.data 22382.996501                       # average overall miss latency
system.l2cache.demand_avg_miss_latency::total 18277.063278                       # average overall miss latency
system.l2cache.overall_avg_miss_latency::.cpu.inst 16275.599170                       # average overall miss latency
system.l2cache.overall_avg_miss_latency::.cpu.data 22382.996501                       # average overall miss latency
system.l2cache.overall_avg_miss_latency::total 18277.063278                       # average overall miss latency
system.l2cache.blocked_cycles::no_mshrs             0                       # number of cycles access was blocked
system.l2cache.blocked_cycles::no_targets            0                       # number of cycles access was blocked
system.l2cache.blocked::no_mshrs                    0                       # number of cycles access was blocked
system.l2cache.blocked::no_targets                  0                       # number of cycles access was blocked
system.l2cache.avg_blocked_cycles::no_mshrs          nan                       # average number of cycles each access was blocked
system.l2cache.avg_blocked_cycles::no_targets          nan                       # average number of cycles each access was blocked
system.l2cache.writebacks::.writebacks          17017                       # number of writebacks
system.l2cache.writebacks::total                17017                       # number of writebacks
system.l2cache.demand_mshr_misses::.cpu.inst        78567                       # number of demand (read+write) MSHR misses
system.l2cache.demand_mshr_misses::.cpu.data        38298                       # number of demand (read+write) MSHR misses
system.l2cache.demand_mshr_misses::total       116865                       # number of demand (read+write) MSHR misses
system.l2cache.overall_mshr_misses::.cpu.inst        78567                       # number of overall MSHR misses
system.l2cache.overall_mshr_misses::.cpu.data        38298                       # number of overall MSHR misses
system.l2cache.overall_mshr_misses::total       116865                       # number of overall MSHR misses
system.l2cache.demand_mshr_miss_latency::.cpu.inst   1121591000                       # number of demand (read+write) MSHR miss cycles
system.l2cache.demand_mshr_miss_latency::.cpu.data    780628000                       # number of demand (read+write) MSHR miss cycles
system.l2cache.demand_mshr_miss_latency::total   1902219000                       # number of demand (read+write) MSHR miss cycles
system.l2cache.overall_mshr_miss_latency::.cpu.inst   1121591000                       # number of overall MSHR miss cycles
system.l2cache.overall_mshr_miss_latency::.cpu.data    780628000                       # number of overall MSHR miss cycles
system.l2cache.overall_mshr_miss_latency::total   1902219000                       # number of overall MSHR miss cycles
system.l2cache.demand_mshr_miss_rate::.cpu.inst     0.699418                       # mshr miss rate for demand accesses
system.l2cache.demand_mshr_miss_rate::.cpu.data     0.514288                       # mshr miss rate for demand accesses
system.l2cache.demand_mshr_miss_rate::total     0.625616                       # mshr miss rate for demand accesses
system.l2cache.overall_mshr_miss_rate::.cpu.inst     0.699418                       # mshr miss rate for overall accesses
system.l2cache.overall_mshr_miss_rate::.cpu.data     0.514288                       # mshr miss rate for overall accesses
system.l2cache.overall_mshr_miss_rate::total     0.625616                       # mshr miss rate for overall accesses
system.l2cache.demand_avg_mshr_miss_latency::.cpu.inst 14275.599170                       # average overall mshr miss latency
system.l2cache.demand_avg_mshr_miss_latency::.cpu.data 20382.996501                       # average overall mshr miss latency
system.l2cache.demand_avg_mshr_miss_latency::total 16277.063278                       # average overall mshr miss latency
system.l2cache.overall_avg_mshr_miss_latency::.cpu.inst 14275.599170                       # average overall mshr miss latency
system.l2cache.overall_avg_mshr_miss_latency::.cpu.data 20382.996501                       # average overall mshr miss latency
system.l2cache.overall_avg_mshr_miss_latency::total 16277.063278                       # average overall mshr miss latency
system.l2cache.replacements                    131074                       # number of replacements
system.l2cache.ReadReq_hits::.cpu.inst          33765                       # number of ReadReq hits
system.l2cache.ReadReq_hits::.cpu.data          36170                       # number of ReadReq hits
system.l2cache.ReadReq_hits::total              69935                       # number of ReadReq hits
system.l2cache.ReadReq_misses::.cpu.inst        78567                       # number of ReadReq misses
system.l2cache.ReadReq_misses::.cpu.data        38298                       # number of ReadReq misses
system.l2cache.ReadReq_misses::total           116865                       # number of ReadReq misses
system.l2cache.ReadReq_miss_latency::.cpu.inst   1278725000                       # number of ReadReq miss cycles
system.l2cache.ReadReq_miss_latency::.cpu.data    857224000                       # number of ReadReq miss cycles
system.l2cache.ReadReq_miss_latency::total   2135949000                       # number of ReadReq miss cycles
system.l2cache.ReadReq_accesses::.cpu.inst       112332                       # number of ReadReq accesses(hits+misses)
system.l2cache.ReadReq_accesses::.cpu.data        74468                       # number of ReadReq accesses(hits+misses)
system.l2cache.ReadReq_accesses::total         186800                       # number of ReadReq accesses(hits+misses)
system.l2cache.ReadReq_miss_rate::.cpu.inst     0.699418                       # miss rate for ReadReq accesses
system.l2cache.ReadReq_miss_rate::.cpu.data     0.514288                       # miss rate for ReadReq accesses
system.l2cache.ReadReq_miss_rate::total      0.625616                       # miss rate for ReadReq accesses
system.l2cache.ReadReq_avg_miss_latency::.cpu.inst 16275.599170                       # average ReadReq miss latency
system.l2cache.ReadReq_avg_miss_latency::.cpu.data 22382.996501                       # average ReadReq miss latency
system.l2cache.ReadReq_avg_miss_latency::total 18277.063278                       # average ReadReq miss latency
system.l2cache.ReadReq_mshr_misses::.cpu.inst        78567                       # number of ReadReq MSHR misses
system.l2cache.ReadReq_mshr_misses::.cpu.data        38298                       # number of ReadReq MSHR misses
system.l2cache.ReadReq_mshr_misses::total       116865                       # number of ReadReq MSHR misses
system.l2cache.ReadReq_mshr_miss_latency::.cpu.inst   1121591000                       # number of ReadReq MSHR miss cycles
system.l2cache.ReadReq_mshr_miss_latency::.cpu.data    780628000                       # number of ReadReq MSHR miss cycles
system.l2cache.ReadReq_mshr_miss_latency::total   1902219000                       # number of ReadReq MSHR miss cycles
system.l2cache.ReadReq_mshr_miss_rate::.cpu.inst     0.699418                       # mshr miss rate for ReadReq accesses
system.l2cache.ReadReq_mshr_miss_rate::.cpu.data     0.514288                       # mshr miss rate for ReadReq accesses
system.l2cache.ReadReq_mshr_miss_rate::total     0.625616                       # mshr miss rate for ReadReq accesses
system.l2cache.ReadReq_avg_mshr_miss_latency::.cpu.inst 14275.599170                       # average ReadReq mshr miss latency
system.l2cache.ReadReq_avg_mshr_miss_latency::.cpu.data 20382.996501                       # average ReadReq mshr miss latency
system.l2cache.ReadReq_avg_mshr_miss_latency::total 16277.063278                       # average ReadReq mshr miss latency
system.l2cache.WritebackDirty_hits::.writebacks        22781                       # number of WritebackDirty hits
system.l2cache.WritebackDirty_hits::total        22781                       # number of WritebackDirty hits
system.l2cache.WritebackDirty_accesses::.writebacks        22781                       # number of WritebackDirty accesses(hits+misses)
system.l2cache.WritebackDirty_accesses::total        22781                       # number of WritebackDirty accesses(hits+misses)
system.l2cache.power_state.pwrStateResidencyTicks::UNDEFINED  27141880000                       # Cumulative time (in ticks) in various power states
system.l2cache.tags.tagsinuse              510.152128                       # Cycle average of tags in use
system.l2cache.tags.total_refs                 209581                       # Total number of references to valid blocks.
system.l2cache.tags.sampled_refs               131586                       # Sample count of references to valid blocks.
system.l2cache.tags.avg_refs                 1.592730                       # Average number of references to valid blocks.
system.l2cache.tags.warmup_cycle                78000                       # Cycle when the warmup percentage was hit.
system.l2cache.tags.occ_blocks::.writebacks    54.843784                       # Average occupied blocks per requestor
system.l2cache.tags.occ_blocks::.cpu.inst   250.071999                       # Average occupied blocks per requestor
system.l2cache.tags.occ_blocks::.cpu.data   205.236346                       # Average occupied blocks per requestor
system.l2cache.tags.occ_percent::.writebacks     0.107117                       # Average percentage of cache occupancy
system.l2cache.tags.occ_percent::.cpu.inst     0.488422                       # Average percentage of cache occupancy
system.l2cache.tags.occ_percent::.cpu.data     0.400852                       # Average percentage of cache occupancy
system.l2cache.tags.occ_percent::total       0.996391                       # Average percentage of cache occupancy
system.l2cache.tags.occ_task_id_blocks::1024          512                       # Occupied blocks per task id
system.l2cache.tags.age_task_id_blocks_1024::0           63                       # Occupied blocks per task id
system.l2cache.tags.age_task_id_blocks_1024::1          100                       # Occupied blocks per task id
system.l2cache.tags.age_task_id_blocks_1024::2          146                       # Occupied blocks per task id
system.l2cache.tags.age_task_id_blocks_1024::3          203                       # Occupied blocks per task id
system.l2cache.tags.occ_task_id_percent::1024            1                       # Percentage of cache occupancy per task id
system.l2cache.tags.tag_accesses               341167                       # Number of tag accesses
system.l2cache.tags.data_accesses              341167                       # Number of data accesses
system.l2cache.tags.power_state.pwrStateResidencyTicks::UNDEFINED  27141880000                       # Cumulative time (in ticks) in various power states
system.l2bar.trans_dist::ReadReq               186800                       # Transaction distribution
system.l2bar.trans_dist::ReadResp              186800                       # Transaction distribution
system.l2bar.trans_dist::WritebackDirty         22781                       # Transaction distribution
system.l2bar.pkt_count_system.dcache.mem_side::system.l2cache.cpu_side       171717                       # Packet count per connected master and slave (bytes)
system.l2bar.pkt_count_system.icache.mem_side::system.l2cache.cpu_side       224664                       # Packet count per connected master and slave (bytes)
system.l2bar.pkt_count::total                  396381                       # Packet count per connected master and slave (bytes)
system.l2bar.pkt_size_system.dcache.mem_side::system.l2cache.cpu_side      6223936                       # Cumulative packet size per connected master and slave (bytes)
system.l2bar.pkt_size_system.icache.mem_side::system.l2cache.cpu_side      7189248                       # Cumulative packet size per connected master and slave (bytes)
system.l2bar.pkt_size::total                 13413184                       # Cumulative packet size per connected master and slave (bytes)
system.l2bar.respLayer1.occupancy           561660000                       # Layer occupancy (ticks)
system.l2bar.respLayer1.utilization               2.1                       # Layer utilization (%)
system.l2bar.reqLayer0.occupancy            300705000                       # Layer occupancy (ticks)
system.l2bar.reqLayer0.utilization                1.1                       # Layer utilization (%)
system.l2bar.respLayer0.occupancy           372340000                       # Layer occupancy (ticks)
system.l2bar.respLayer0.utilization               1.4                       # Layer utilization (%)
system.l2bar.power_state.pwrStateResidencyTicks::UNDEFINED  27141880000                       # Cumulative time (in ticks) in various power states
system.cpu.dtb.walker.power_state.pwrStateResidencyTicks::UNDEFINED  27141880000                       # Cumulative time (in ticks) in various power states
system.cpu.interrupts.clk_domain.clock          16000                       # Clock period in ticks
system.cpu.itb.walker.power_state.pwrStateResidencyTicks::UNDEFINED  27141880000                       # Cumulative time (in ticks) in various power states
system.cpu.power_state.numTransitions               1                       # Number of power state transitions
system.cpu.power_state.pwrStateResidencyTicks::ON  27141880000                       # Cumulative time (in ticks) in various power states

---------- End Simulation Statistics   ----------
