
---------- Begin Simulation Statistics ----------
final_tick                                 3742420000                       # Number of ticks from beginning of simulation (restored from checkpoints and never reset)
host_inst_rate                                 278500                       # Simulator instruction rate (inst/s)
host_mem_usage                                1293616                       # Number of bytes of host memory used
host_op_rate                                   494605                       # Simulator op (including micro ops) rate (op/s)
host_seconds                                     3.59                       # Real time elapsed on the host
host_tick_rate                             1042129535                       # Simulator tick rate (ticks/s)
sim_freq                                 1000000000000                       # Frequency of simulated ticks
sim_insts                                     1000068                       # Number of instructions simulated
sim_ops                                       1776170                       # Number of ops (including micro ops) simulated
sim_seconds                                  0.003742                       # Number of seconds simulated
sim_ticks                                  3742420000                       # Number of ticks simulated
system.cpu.Branches                            188574                       # Number of branches fetched
system.cpu.committedInsts                     1000068                       # Number of instructions committed
system.cpu.committedOps                       1776170                       # Number of ops (including micro ops) committed
system.cpu.dtb.rdAccesses                      203371                       # TLB accesses on read requests
system.cpu.dtb.rdMisses                            21                       # TLB misses on read requests
system.cpu.dtb.wrAccesses                       99861                       # TLB accesses on write requests
system.cpu.dtb.wrMisses                            37                       # TLB misses on write requests
system.cpu.idle_fraction                            0                       # Percentage of idle cycles
system.cpu.itb.rdAccesses                           0                       # TLB accesses on read requests
system.cpu.itb.rdMisses                             0                       # TLB misses on read requests
system.cpu.itb.wrAccesses                     1268633                       # TLB accesses on write requests
system.cpu.itb.wrMisses                            83                       # TLB misses on write requests
system.cpu.not_idle_fraction                        1                       # Percentage of non-idle cycles
system.cpu.numCycles                          3742409                       # number of cpu cycles simulated
system.cpu.numWorkItemsCompleted                    0                       # number of work items this cpu completed
system.cpu.numWorkItemsStarted                      0                       # number of work items this cpu started
system.cpu.num_busy_cycles                    3742409                       # Number of busy cycles
system.cpu.num_cc_register_reads              1305124                       # number of times the CC registers were read
system.cpu.num_cc_register_writes             1000627                       # number of times the CC registers were written
system.cpu.num_conditional_control_insts       166912                       # number of instructions that are conditional controls
system.cpu.num_fp_alu_accesses                  11990                       # Number of float alu accesses
system.cpu.num_fp_insts                         11990                       # number of float instructions
system.cpu.num_fp_register_reads                15122                       # number of times the floating registers were read
system.cpu.num_fp_register_writes                5614                       # number of times the floating registers were written
system.cpu.num_func_calls                       10860                       # number of times a function call or return occured
system.cpu.num_idle_cycles                          0                       # Number of idle cycles
system.cpu.num_int_alu_accesses               1761816                       # Number of integer alu accesses
system.cpu.num_int_insts                      1761816                       # number of integer instructions
system.cpu.num_int_register_reads             3292249                       # number of times the integer registers were read
system.cpu.num_int_register_writes            1489073                       # number of times the integer registers were written
system.cpu.num_load_insts                      203286                       # Number of load instructions
system.cpu.num_mem_refs                        303069                       # number of memory refs
system.cpu.num_store_insts                      99783                       # Number of store instructions
system.cpu.num_vec_alu_accesses                     0                       # Number of vector alu accesses
system.cpu.num_vec_insts                            0                       # number of vector instructions
system.cpu.num_vec_register_reads                   0                       # number of times the vector registers were read
system.cpu.num_vec_register_writes                  0                       # number of times the vector registers were written
system.cpu.op_class::No_OpClass                  7703      0.43%      0.43% # Class of executed instruction
system.cpu.op_class::IntAlu                   1447338     81.49%     81.92% # Class of executed instruction
system.cpu.op_class::IntMult                    11305      0.64%     82.56% # Class of executed instruction
system.cpu.op_class::IntDiv                      1859      0.10%     82.66% # Class of executed instruction
system.cpu.op_class::FloatAdd                     597      0.03%     82.69% # Class of executed instruction
system.cpu.op_class::FloatCmp                       0      0.00%     82.69% # Class of executed instruction
system.cpu.op_class::FloatCvt                       0      0.00%     82.69% # Class of executed instruction
system.cpu.op_class::FloatMult                      0      0.00%     82.69% # Class of executed instruction
system.cpu.op_class::FloatMultAcc                   0      0.00%     82.69% # Class of executed instruction
system.cpu.op_class::FloatDiv                       0      0.00%     82.69% # Class of executed instruction
system.cpu.op_class::FloatMisc                      0      0.00%     82.69% # Class of executed instruction
system.cpu.op_class::FloatSqrt                      0      0.00%     82.69% # Class of executed instruction
system.cpu.op_class::SimdAdd                       52      0.00%     82.70% # Class of executed instruction
system.cpu.op_class::SimdAddAcc                     0      0.00%     82.70% # Class of executed instruction
system.cpu.op_class::SimdAlu                     1034      0.06%     82.76% # Class of executed instruction
system.cpu.op_class::SimdCmp                       18      0.00%     82.76% # Class of executed instruction
system.cpu.op_class::SimdCvt                      534      0.03%     82.79% # Class of executed instruction
system.cpu.op_class::SimdMisc                    2181      0.12%     82.91% # Class of executed instruction
system.cpu.op_class::SimdMult                       0      0.00%     82.91% # Class of executed instruction
system.cpu.op_class::SimdMultAcc                    0      0.00%     82.91% # Class of executed instruction
system.cpu.op_class::SimdShift                     78      0.00%     82.91% # Class of executed instruction
system.cpu.op_class::SimdShiftAcc                   0      0.00%     82.91% # Class of executed instruction
system.cpu.op_class::SimdDiv                        0      0.00%     82.91% # Class of executed instruction
system.cpu.op_class::SimdSqrt                       0      0.00%     82.91% # Class of executed instruction
system.cpu.op_class::SimdFloatAdd                 207      0.01%     82.93% # Class of executed instruction
system.cpu.op_class::SimdFloatAlu                   0      0.00%     82.93% # Class of executed instruction
system.cpu.op_class::SimdFloatCmp                   0      0.00%     82.93% # Class of executed instruction
system.cpu.op_class::SimdFloatCvt                 207      0.01%     82.94% # Class of executed instruction
system.cpu.op_class::SimdFloatDiv                   0      0.00%     82.94% # Class of executed instruction
system.cpu.op_class::SimdFloatMisc                  0      0.00%     82.94% # Class of executed instruction
system.cpu.op_class::SimdFloatMult                  0      0.00%     82.94% # Class of executed instruction
system.cpu.op_class::SimdFloatMultAcc               0      0.00%     82.94% # Class of executed instruction
system.cpu.op_class::SimdFloatSqrt                  0      0.00%     82.94% # Class of executed instruction
system.cpu.op_class::SimdReduceAdd                  0      0.00%     82.94% # Class of executed instruction
system.cpu.op_class::SimdReduceAlu                  0      0.00%     82.94% # Class of executed instruction
system.cpu.op_class::SimdReduceCmp                  0      0.00%     82.94% # Class of executed instruction
system.cpu.op_class::SimdFloatReduceAdd             0      0.00%     82.94% # Class of executed instruction
system.cpu.op_class::SimdFloatReduceCmp             0      0.00%     82.94% # Class of executed instruction
system.cpu.op_class::SimdAes                        0      0.00%     82.94% # Class of executed instruction
system.cpu.op_class::SimdAesMix                     0      0.00%     82.94% # Class of executed instruction
system.cpu.op_class::SimdSha1Hash                   0      0.00%     82.94% # Class of executed instruction
system.cpu.op_class::SimdSha1Hash2                  0      0.00%     82.94% # Class of executed instruction
system.cpu.op_class::SimdSha256Hash                 0      0.00%     82.94% # Class of executed instruction
system.cpu.op_class::SimdSha256Hash2                0      0.00%     82.94% # Class of executed instruction
system.cpu.op_class::SimdShaSigma2                  0      0.00%     82.94% # Class of executed instruction
system.cpu.op_class::SimdShaSigma3                  0      0.00%     82.94% # Class of executed instruction
system.cpu.op_class::SimdPredAlu                    0      0.00%     82.94% # Class of executed instruction
system.cpu.op_class::MemRead                   202331     11.39%     94.33% # Class of executed instruction
system.cpu.op_class::MemWrite                   94265      5.31%     99.64% # Class of executed instruction
system.cpu.op_class::FloatMemRead                 955      0.05%     99.69% # Class of executed instruction
system.cpu.op_class::FloatMemWrite               5518      0.31%    100.00% # Class of executed instruction
system.cpu.op_class::IprAccess                      0      0.00%    100.00% # Class of executed instruction
system.cpu.op_class::InstPrefetch                   0      0.00%    100.00% # Class of executed instruction
system.cpu.op_class::total                    1776182                       # Class of executed instruction
system.cpu.workload.numSyscalls                    43                       # Number of system calls
system.dynamic_cache.flushTicks                     0                       # Ticks taken to flush
system.dynamic_cache.numFlushes                     0                       # Number of Flushes Taken
system.cache_small.blocked_cycles::no_mshrs            0                       # number of cycles access was blocked
system.cache_small.blocked_cycles::no_targets            0                       # number of cycles access was blocked
system.cache_small.blocked::no_mshrs                0                       # number of cycles access was blocked
system.cache_small.blocked::no_targets              0                       # number of cycles access was blocked
system.cache_small.avg_blocked_cycles::no_mshrs          nan                       # average number of cycles each access was blocked
system.cache_small.avg_blocked_cycles::no_targets          nan                       # average number of cycles each access was blocked
system.cache_small.replacements                     0                       # number of replacements
system.cache_small.power_state.pwrStateResidencyTicks::UNDEFINED   3742420000                       # Cumulative time (in ticks) in various power states
system.cache_small.tags.tagsinuse                   0                       # Cycle average of tags in use
system.cache_small.tags.total_refs                  0                       # Total number of references to valid blocks.
system.cache_small.tags.sampled_refs                0                       # Sample count of references to valid blocks.
system.cache_small.tags.avg_refs                  nan                       # Average number of references to valid blocks.
system.cache_small.tags.warmup_cycle                0                       # Cycle when the warmup percentage was hit.
system.cache_small.tags.tag_accesses                0                       # Number of tag accesses
system.cache_small.tags.data_accesses               0                       # Number of data accesses
system.cache_small.tags.power_state.pwrStateResidencyTicks::UNDEFINED   3742420000                       # Cumulative time (in ticks) in various power states
system.icache.demand_hits::.cpu.inst          1261936                       # number of demand (read+write) hits
system.icache.demand_hits::total              1261936                       # number of demand (read+write) hits
system.icache.overall_hits::.cpu.inst         1261936                       # number of overall hits
system.icache.overall_hits::total             1261936                       # number of overall hits
system.icache.demand_misses::.cpu.inst           6697                       # number of demand (read+write) misses
system.icache.demand_misses::total               6697                       # number of demand (read+write) misses
system.icache.overall_misses::.cpu.inst          6697                       # number of overall misses
system.icache.overall_misses::total              6697                       # number of overall misses
system.icache.demand_miss_latency::.cpu.inst    411477000                       # number of demand (read+write) miss cycles
system.icache.demand_miss_latency::total    411477000                       # number of demand (read+write) miss cycles
system.icache.overall_miss_latency::.cpu.inst    411477000                       # number of overall miss cycles
system.icache.overall_miss_latency::total    411477000                       # number of overall miss cycles
system.icache.demand_accesses::.cpu.inst      1268633                       # number of demand (read+write) accesses
system.icache.demand_accesses::total          1268633                       # number of demand (read+write) accesses
system.icache.overall_accesses::.cpu.inst      1268633                       # number of overall (read+write) accesses
system.icache.overall_accesses::total         1268633                       # number of overall (read+write) accesses
system.icache.demand_miss_rate::.cpu.inst     0.005279                       # miss rate for demand accesses
system.icache.demand_miss_rate::total        0.005279                       # miss rate for demand accesses
system.icache.overall_miss_rate::.cpu.inst     0.005279                       # miss rate for overall accesses
system.icache.overall_miss_rate::total       0.005279                       # miss rate for overall accesses
system.icache.demand_avg_miss_latency::.cpu.inst 61441.988950                       # average overall miss latency
system.icache.demand_avg_miss_latency::total 61441.988950                       # average overall miss latency
system.icache.overall_avg_miss_latency::.cpu.inst 61441.988950                       # average overall miss latency
system.icache.overall_avg_miss_latency::total 61441.988950                       # average overall miss latency
system.icache.blocked_cycles::no_mshrs              0                       # number of cycles access was blocked
system.icache.blocked_cycles::no_targets            0                       # number of cycles access was blocked
system.icache.blocked::no_mshrs                     0                       # number of cycles access was blocked
system.icache.blocked::no_targets                   0                       # number of cycles access was blocked
system.icache.avg_blocked_cycles::no_mshrs          nan                       # average number of cycles each access was blocked
system.icache.avg_blocked_cycles::no_targets          nan                       # average number of cycles each access was blocked
system.icache.demand_mshr_misses::.cpu.inst         6697                       # number of demand (read+write) MSHR misses
system.icache.demand_mshr_misses::total          6697                       # number of demand (read+write) MSHR misses
system.icache.overall_mshr_misses::.cpu.inst         6697                       # number of overall MSHR misses
system.icache.overall_mshr_misses::total         6697                       # number of overall MSHR misses
system.icache.demand_mshr_miss_latency::.cpu.inst    398083000                       # number of demand (read+write) MSHR miss cycles
system.icache.demand_mshr_miss_latency::total    398083000                       # number of demand (read+write) MSHR miss cycles
system.icache.overall_mshr_miss_latency::.cpu.inst    398083000                       # number of overall MSHR miss cycles
system.icache.overall_mshr_miss_latency::total    398083000                       # number of overall MSHR miss cycles
system.icache.demand_mshr_miss_rate::.cpu.inst     0.005279                       # mshr miss rate for demand accesses
system.icache.demand_mshr_miss_rate::total     0.005279                       # mshr miss rate for demand accesses
system.icache.overall_mshr_miss_rate::.cpu.inst     0.005279                       # mshr miss rate for overall accesses
system.icache.overall_mshr_miss_rate::total     0.005279                       # mshr miss rate for overall accesses
system.icache.demand_avg_mshr_miss_latency::.cpu.inst 59441.988950                       # average overall mshr miss latency
system.icache.demand_avg_mshr_miss_latency::total 59441.988950                       # average overall mshr miss latency
system.icache.overall_avg_mshr_miss_latency::.cpu.inst 59441.988950                       # average overall mshr miss latency
system.icache.overall_avg_mshr_miss_latency::total 59441.988950                       # average overall mshr miss latency
system.icache.replacements                       6441                       # number of replacements
system.icache.ReadReq_hits::.cpu.inst         1261936                       # number of ReadReq hits
system.icache.ReadReq_hits::total             1261936                       # number of ReadReq hits
system.icache.ReadReq_misses::.cpu.inst          6697                       # number of ReadReq misses
system.icache.ReadReq_misses::total              6697                       # number of ReadReq misses
system.icache.ReadReq_miss_latency::.cpu.inst    411477000                       # number of ReadReq miss cycles
system.icache.ReadReq_miss_latency::total    411477000                       # number of ReadReq miss cycles
system.icache.ReadReq_accesses::.cpu.inst      1268633                       # number of ReadReq accesses(hits+misses)
system.icache.ReadReq_accesses::total         1268633                       # number of ReadReq accesses(hits+misses)
system.icache.ReadReq_miss_rate::.cpu.inst     0.005279                       # miss rate for ReadReq accesses
system.icache.ReadReq_miss_rate::total       0.005279                       # miss rate for ReadReq accesses
system.icache.ReadReq_avg_miss_latency::.cpu.inst 61441.988950                       # average ReadReq miss latency
system.icache.ReadReq_avg_miss_latency::total 61441.988950                       # average ReadReq miss latency
system.icache.ReadReq_mshr_misses::.cpu.inst         6697                       # number of ReadReq MSHR misses
system.icache.ReadReq_mshr_misses::total         6697                       # number of ReadReq MSHR misses
system.icache.ReadReq_mshr_miss_latency::.cpu.inst    398083000                       # number of ReadReq MSHR miss cycles
system.icache.ReadReq_mshr_miss_latency::total    398083000                       # number of ReadReq MSHR miss cycles
system.icache.ReadReq_mshr_miss_rate::.cpu.inst     0.005279                       # mshr miss rate for ReadReq accesses
system.icache.ReadReq_mshr_miss_rate::total     0.005279                       # mshr miss rate for ReadReq accesses
system.icache.ReadReq_avg_mshr_miss_latency::.cpu.inst 59441.988950                       # average ReadReq mshr miss latency
system.icache.ReadReq_avg_mshr_miss_latency::total 59441.988950                       # average ReadReq mshr miss latency
system.icache.power_state.pwrStateResidencyTicks::UNDEFINED   3742420000                       # Cumulative time (in ticks) in various power states
system.icache.tags.tagsinuse               249.676826                       # Cycle average of tags in use
system.icache.tags.total_refs                  975516                       # Total number of references to valid blocks.
system.icache.tags.sampled_refs                  6441                       # Sample count of references to valid blocks.
system.icache.tags.avg_refs                151.454122                       # Average number of references to valid blocks.
system.icache.tags.warmup_cycle                 80000                       # Cycle when the warmup percentage was hit.
system.icache.tags.occ_blocks::.cpu.inst   249.676826                       # Average occupied blocks per requestor
system.icache.tags.occ_percent::.cpu.inst     0.975300                       # Average percentage of cache occupancy
system.icache.tags.occ_percent::total        0.975300                       # Average percentage of cache occupancy
system.icache.tags.occ_task_id_blocks::1024          256                       # Occupied blocks per task id
system.icache.tags.age_task_id_blocks_1024::0            1                       # Occupied blocks per task id
system.icache.tags.age_task_id_blocks_1024::1           63                       # Occupied blocks per task id
system.icache.tags.age_task_id_blocks_1024::2           28                       # Occupied blocks per task id
system.icache.tags.age_task_id_blocks_1024::3          164                       # Occupied blocks per task id
system.icache.tags.occ_task_id_percent::1024            1                       # Percentage of cache occupancy per task id
system.icache.tags.tag_accesses               1275330                       # Number of tag accesses
system.icache.tags.data_accesses              1275330                       # Number of data accesses
system.icache.tags.power_state.pwrStateResidencyTicks::UNDEFINED   3742420000                       # Cumulative time (in ticks) in various power states
system.membus.trans_dist::ReadReq                7825                       # Transaction distribution
system.membus.trans_dist::ReadResp               7825                       # Transaction distribution
system.membus.trans_dist::WritebackDirty         1674                       # Transaction distribution
system.membus.pkt_count_system.dynamic_cache.mem_side::system.mem_ctrl.port        17324                       # Packet count per connected master and slave (bytes)
system.membus.pkt_count_system.dynamic_cache.mem_side::total        17324                       # Packet count per connected master and slave (bytes)
system.membus.pkt_count::total                  17324                       # Packet count per connected master and slave (bytes)
system.membus.pkt_size_system.dynamic_cache.mem_side::system.mem_ctrl.port       607936                       # Cumulative packet size per connected master and slave (bytes)
system.membus.pkt_size_system.dynamic_cache.mem_side::total       607936                       # Cumulative packet size per connected master and slave (bytes)
system.membus.pkt_size::total                  607936                       # Cumulative packet size per connected master and slave (bytes)
system.membus.reqLayer2.occupancy            16195000                       # Layer occupancy (ticks)
system.membus.reqLayer2.utilization               0.4                       # Layer utilization (%)
system.membus.respLayer0.occupancy           41613500                       # Layer occupancy (ticks)
system.membus.respLayer0.utilization              1.1                       # Layer utilization (%)
system.membus.power_state.pwrStateResidencyTicks::UNDEFINED   3742420000                       # Cumulative time (in ticks) in various power states
system.mem_ctrl.bytes_read::.cpu.inst          340480                       # Number of bytes read from this memory
system.mem_ctrl.bytes_read::.cpu.data          160320                       # Number of bytes read from this memory
system.mem_ctrl.bytes_read::total              500800                       # Number of bytes read from this memory
system.mem_ctrl.bytes_inst_read::.cpu.inst       340480                       # Number of instructions bytes read from this memory
system.mem_ctrl.bytes_inst_read::total         340480                       # Number of instructions bytes read from this memory
system.mem_ctrl.bytes_written::.writebacks       107136                       # Number of bytes written to this memory
system.mem_ctrl.bytes_written::total           107136                       # Number of bytes written to this memory
system.mem_ctrl.num_reads::.cpu.inst             5320                       # Number of read requests responded to by this memory
system.mem_ctrl.num_reads::.cpu.data             2505                       # Number of read requests responded to by this memory
system.mem_ctrl.num_reads::total                 7825                       # Number of read requests responded to by this memory
system.mem_ctrl.num_writes::.writebacks          1674                       # Number of write requests responded to by this memory
system.mem_ctrl.num_writes::total                1674                       # Number of write requests responded to by this memory
system.mem_ctrl.bw_read::.cpu.inst           90978565                       # Total read bandwidth from this memory (bytes/s)
system.mem_ctrl.bw_read::.cpu.data           42838591                       # Total read bandwidth from this memory (bytes/s)
system.mem_ctrl.bw_read::total              133817156                       # Total read bandwidth from this memory (bytes/s)
system.mem_ctrl.bw_inst_read::.cpu.inst      90978565                       # Instruction read bandwidth from this memory (bytes/s)
system.mem_ctrl.bw_inst_read::total          90978565                       # Instruction read bandwidth from this memory (bytes/s)
system.mem_ctrl.bw_write::.writebacks        28627466                       # Write bandwidth from this memory (bytes/s)
system.mem_ctrl.bw_write::total              28627466                       # Write bandwidth from this memory (bytes/s)
system.mem_ctrl.bw_total::.writebacks        28627466                       # Total bandwidth to/from this memory (bytes/s)
system.mem_ctrl.bw_total::.cpu.inst          90978565                       # Total bandwidth to/from this memory (bytes/s)
system.mem_ctrl.bw_total::.cpu.data          42838591                       # Total bandwidth to/from this memory (bytes/s)
system.mem_ctrl.bw_total::total             162444621                       # Total bandwidth to/from this memory (bytes/s)
system.mem_ctrl.avgPriority_.writebacks::samples       920.00                       # Average QoS priority value for accepted requests
system.mem_ctrl.avgPriority_.cpu.inst::samples      5320.00                       # Average QoS priority value for accepted requests
system.mem_ctrl.avgPriority_.cpu.data::samples      2210.00                       # Average QoS priority value for accepted requests
system.mem_ctrl.priorityMinLatency       0.000000018750                       # per QoS priority minimum request to response latency (s)
system.mem_ctrl.priorityMaxLatency       0.002022382500                       # per QoS priority maximum request to response latency (s)
system.mem_ctrl.numReadWriteTurnArounds            53                       # Number of turnarounds from READ to WRITE
system.mem_ctrl.numWriteReadTurnArounds            53                       # Number of turnarounds from WRITE to READ
system.mem_ctrl.numStayReadState                17650                       # Number of times bus staying in READ state
system.mem_ctrl.numStayWriteState                 837                       # Number of times bus staying in WRITE state
system.mem_ctrl.readReqs                         7825                       # Number of read requests accepted
system.mem_ctrl.writeReqs                        1674                       # Number of write requests accepted
system.mem_ctrl.readBursts                       7825                       # Number of DRAM read bursts, including those serviced by the write queue
system.mem_ctrl.writeBursts                      1674                       # Number of DRAM write bursts, including those merged in the write queue
system.mem_ctrl.servicedByWrQ                     295                       # Number of DRAM read bursts serviced by the write queue
system.mem_ctrl.mergedWrBursts                    754                       # Number of DRAM write bursts merged with an existing one
system.mem_ctrl.neitherReadNorWriteReqs             0                       # Number of requests that are neither read nor write
system.mem_ctrl.perBankRdBursts::0                364                       # Per bank write bursts
system.mem_ctrl.perBankRdBursts::1                212                       # Per bank write bursts
system.mem_ctrl.perBankRdBursts::2                719                       # Per bank write bursts
system.mem_ctrl.perBankRdBursts::3                274                       # Per bank write bursts
system.mem_ctrl.perBankRdBursts::4                403                       # Per bank write bursts
system.mem_ctrl.perBankRdBursts::5                236                       # Per bank write bursts
system.mem_ctrl.perBankRdBursts::6               1590                       # Per bank write bursts
system.mem_ctrl.perBankRdBursts::7                149                       # Per bank write bursts
system.mem_ctrl.perBankRdBursts::8                758                       # Per bank write bursts
system.mem_ctrl.perBankRdBursts::9                228                       # Per bank write bursts
system.mem_ctrl.perBankRdBursts::10              1240                       # Per bank write bursts
system.mem_ctrl.perBankRdBursts::11               172                       # Per bank write bursts
system.mem_ctrl.perBankRdBursts::12               250                       # Per bank write bursts
system.mem_ctrl.perBankRdBursts::13               312                       # Per bank write bursts
system.mem_ctrl.perBankRdBursts::14               357                       # Per bank write bursts
system.mem_ctrl.perBankRdBursts::15               266                       # Per bank write bursts
system.mem_ctrl.perBankWrBursts::0                128                       # Per bank write bursts
system.mem_ctrl.perBankWrBursts::1                  7                       # Per bank write bursts
system.mem_ctrl.perBankWrBursts::2                 26                       # Per bank write bursts
system.mem_ctrl.perBankWrBursts::3                 11                       # Per bank write bursts
system.mem_ctrl.perBankWrBursts::4                 64                       # Per bank write bursts
system.mem_ctrl.perBankWrBursts::5                 75                       # Per bank write bursts
system.mem_ctrl.perBankWrBursts::6                  6                       # Per bank write bursts
system.mem_ctrl.perBankWrBursts::7                  0                       # Per bank write bursts
system.mem_ctrl.perBankWrBursts::8                 10                       # Per bank write bursts
system.mem_ctrl.perBankWrBursts::9                 56                       # Per bank write bursts
system.mem_ctrl.perBankWrBursts::10                14                       # Per bank write bursts
system.mem_ctrl.perBankWrBursts::11                63                       # Per bank write bursts
system.mem_ctrl.perBankWrBursts::12               119                       # Per bank write bursts
system.mem_ctrl.perBankWrBursts::13               125                       # Per bank write bursts
system.mem_ctrl.perBankWrBursts::14                84                       # Per bank write bursts
system.mem_ctrl.perBankWrBursts::15               102                       # Per bank write bursts
system.mem_ctrl.avgRdQLen                        1.00                       # Average read queue length when enqueuing
system.mem_ctrl.avgWrQLen                       22.18                       # Average write queue length when enqueuing
system.mem_ctrl.totQLat                      62932000                       # Total ticks spent queuing
system.mem_ctrl.totBusLat                    37650000                       # Total ticks spent in databus transfers
system.mem_ctrl.totMemAccLat                204119500                       # Total ticks spent from burst creation until serviced by the DRAM
system.mem_ctrl.avgQLat                       8357.50                       # Average queueing delay per DRAM burst
system.mem_ctrl.avgBusLat                     5000.00                       # Average bus latency per DRAM burst
system.mem_ctrl.avgMemAccLat                 27107.50                       # Average memory access latency per DRAM burst
system.mem_ctrl.numRdRetry                          0                       # Number of times read queue was full causing retry
system.mem_ctrl.numWrRetry                          0                       # Number of times write queue was full causing retry
system.mem_ctrl.readRowHits                      5529                       # Number of row buffer hits during reads
system.mem_ctrl.writeRowHits                      740                       # Number of row buffer hits during writes
system.mem_ctrl.readRowHitRate                  73.43                       # Row buffer hit rate for reads
system.mem_ctrl.writeRowHitRate                 80.43                       # Row buffer hit rate for writes
system.mem_ctrl.readPktSize::0                      0                       # Read request sizes (log2)
system.mem_ctrl.readPktSize::1                      0                       # Read request sizes (log2)
system.mem_ctrl.readPktSize::2                      0                       # Read request sizes (log2)
system.mem_ctrl.readPktSize::3                      0                       # Read request sizes (log2)
system.mem_ctrl.readPktSize::4                      0                       # Read request sizes (log2)
system.mem_ctrl.readPktSize::5                      0                       # Read request sizes (log2)
system.mem_ctrl.readPktSize::6                   7825                       # Read request sizes (log2)
system.mem_ctrl.writePktSize::0                     0                       # Write request sizes (log2)
system.mem_ctrl.writePktSize::1                     0                       # Write request sizes (log2)
system.mem_ctrl.writePktSize::2                     0                       # Write request sizes (log2)
system.mem_ctrl.writePktSize::3                     0                       # Write request sizes (log2)
system.mem_ctrl.writePktSize::4                     0                       # Write request sizes (log2)
system.mem_ctrl.writePktSize::5                     0                       # Write request sizes (log2)
system.mem_ctrl.writePktSize::6                  1674                       # Write request sizes (log2)
system.mem_ctrl.rdQLenPdf::0                     7530                       # What read queue length does an incoming req see
system.mem_ctrl.rdQLenPdf::1                        0                       # What read queue length does an incoming req see
system.mem_ctrl.rdQLenPdf::2                        0                       # What read queue length does an incoming req see
system.mem_ctrl.rdQLenPdf::3                        0                       # What read queue length does an incoming req see
system.mem_ctrl.rdQLenPdf::4                        0                       # What read queue length does an incoming req see
system.mem_ctrl.rdQLenPdf::5                        0                       # What read queue length does an incoming req see
system.mem_ctrl.rdQLenPdf::6                        0                       # What read queue length does an incoming req see
system.mem_ctrl.rdQLenPdf::7                        0                       # What read queue length does an incoming req see
system.mem_ctrl.rdQLenPdf::8                        0                       # What read queue length does an incoming req see
system.mem_ctrl.rdQLenPdf::9                        0                       # What read queue length does an incoming req see
system.mem_ctrl.rdQLenPdf::10                       0                       # What read queue length does an incoming req see
system.mem_ctrl.rdQLenPdf::11                       0                       # What read queue length does an incoming req see
system.mem_ctrl.rdQLenPdf::12                       0                       # What read queue length does an incoming req see
system.mem_ctrl.rdQLenPdf::13                       0                       # What read queue length does an incoming req see
system.mem_ctrl.rdQLenPdf::14                       0                       # What read queue length does an incoming req see
system.mem_ctrl.rdQLenPdf::15                       0                       # What read queue length does an incoming req see
system.mem_ctrl.rdQLenPdf::16                       0                       # What read queue length does an incoming req see
system.mem_ctrl.rdQLenPdf::17                       0                       # What read queue length does an incoming req see
system.mem_ctrl.rdQLenPdf::18                       0                       # What read queue length does an incoming req see
system.mem_ctrl.rdQLenPdf::19                       0                       # What read queue length does an incoming req see
system.mem_ctrl.rdQLenPdf::20                       0                       # What read queue length does an incoming req see
system.mem_ctrl.rdQLenPdf::21                       0                       # What read queue length does an incoming req see
system.mem_ctrl.rdQLenPdf::22                       0                       # What read queue length does an incoming req see
system.mem_ctrl.rdQLenPdf::23                       0                       # What read queue length does an incoming req see
system.mem_ctrl.rdQLenPdf::24                       0                       # What read queue length does an incoming req see
system.mem_ctrl.rdQLenPdf::25                       0                       # What read queue length does an incoming req see
system.mem_ctrl.rdQLenPdf::26                       0                       # What read queue length does an incoming req see
system.mem_ctrl.rdQLenPdf::27                       0                       # What read queue length does an incoming req see
system.mem_ctrl.rdQLenPdf::28                       0                       # What read queue length does an incoming req see
system.mem_ctrl.rdQLenPdf::29                       0                       # What read queue length does an incoming req see
system.mem_ctrl.rdQLenPdf::30                       0                       # What read queue length does an incoming req see
system.mem_ctrl.rdQLenPdf::31                       0                       # What read queue length does an incoming req see
system.mem_ctrl.wrQLenPdf::0                        1                       # What write queue length does an incoming req see
system.mem_ctrl.wrQLenPdf::1                        1                       # What write queue length does an incoming req see
system.mem_ctrl.wrQLenPdf::2                        1                       # What write queue length does an incoming req see
system.mem_ctrl.wrQLenPdf::3                        1                       # What write queue length does an incoming req see
system.mem_ctrl.wrQLenPdf::4                        1                       # What write queue length does an incoming req see
system.mem_ctrl.wrQLenPdf::5                        1                       # What write queue length does an incoming req see
system.mem_ctrl.wrQLenPdf::6                        1                       # What write queue length does an incoming req see
system.mem_ctrl.wrQLenPdf::7                        1                       # What write queue length does an incoming req see
system.mem_ctrl.wrQLenPdf::8                        1                       # What write queue length does an incoming req see
system.mem_ctrl.wrQLenPdf::9                        1                       # What write queue length does an incoming req see
system.mem_ctrl.wrQLenPdf::10                       1                       # What write queue length does an incoming req see
system.mem_ctrl.wrQLenPdf::11                       1                       # What write queue length does an incoming req see
system.mem_ctrl.wrQLenPdf::12                       1                       # What write queue length does an incoming req see
system.mem_ctrl.wrQLenPdf::13                       1                       # What write queue length does an incoming req see
system.mem_ctrl.wrQLenPdf::14                       1                       # What write queue length does an incoming req see
system.mem_ctrl.wrQLenPdf::15                      20                       # What write queue length does an incoming req see
system.mem_ctrl.wrQLenPdf::16                      23                       # What write queue length does an incoming req see
system.mem_ctrl.wrQLenPdf::17                      54                       # What write queue length does an incoming req see
system.mem_ctrl.wrQLenPdf::18                      54                       # What write queue length does an incoming req see
system.mem_ctrl.wrQLenPdf::19                      55                       # What write queue length does an incoming req see
system.mem_ctrl.wrQLenPdf::20                      54                       # What write queue length does an incoming req see
system.mem_ctrl.wrQLenPdf::21                      54                       # What write queue length does an incoming req see
system.mem_ctrl.wrQLenPdf::22                      54                       # What write queue length does an incoming req see
system.mem_ctrl.wrQLenPdf::23                      54                       # What write queue length does an incoming req see
system.mem_ctrl.wrQLenPdf::24                      54                       # What write queue length does an incoming req see
system.mem_ctrl.wrQLenPdf::25                      54                       # What write queue length does an incoming req see
system.mem_ctrl.wrQLenPdf::26                      54                       # What write queue length does an incoming req see
system.mem_ctrl.wrQLenPdf::27                      54                       # What write queue length does an incoming req see
system.mem_ctrl.wrQLenPdf::28                      54                       # What write queue length does an incoming req see
system.mem_ctrl.wrQLenPdf::29                      54                       # What write queue length does an incoming req see
system.mem_ctrl.wrQLenPdf::30                      53                       # What write queue length does an incoming req see
system.mem_ctrl.wrQLenPdf::31                      53                       # What write queue length does an incoming req see
system.mem_ctrl.wrQLenPdf::32                      53                       # What write queue length does an incoming req see
system.mem_ctrl.wrQLenPdf::33                       0                       # What write queue length does an incoming req see
system.mem_ctrl.wrQLenPdf::34                       0                       # What write queue length does an incoming req see
system.mem_ctrl.wrQLenPdf::35                       0                       # What write queue length does an incoming req see
system.mem_ctrl.wrQLenPdf::36                       0                       # What write queue length does an incoming req see
system.mem_ctrl.wrQLenPdf::37                       0                       # What write queue length does an incoming req see
system.mem_ctrl.wrQLenPdf::38                       0                       # What write queue length does an incoming req see
system.mem_ctrl.wrQLenPdf::39                       0                       # What write queue length does an incoming req see
system.mem_ctrl.wrQLenPdf::40                       0                       # What write queue length does an incoming req see
system.mem_ctrl.wrQLenPdf::41                       0                       # What write queue length does an incoming req see
system.mem_ctrl.wrQLenPdf::42                       0                       # What write queue length does an incoming req see
system.mem_ctrl.wrQLenPdf::43                       0                       # What write queue length does an incoming req see
system.mem_ctrl.wrQLenPdf::44                       0                       # What write queue length does an incoming req see
system.mem_ctrl.wrQLenPdf::45                       0                       # What write queue length does an incoming req see
system.mem_ctrl.wrQLenPdf::46                       0                       # What write queue length does an incoming req see
system.mem_ctrl.wrQLenPdf::47                       0                       # What write queue length does an incoming req see
system.mem_ctrl.wrQLenPdf::48                       0                       # What write queue length does an incoming req see
system.mem_ctrl.wrQLenPdf::49                       0                       # What write queue length does an incoming req see
system.mem_ctrl.wrQLenPdf::50                       0                       # What write queue length does an incoming req see
system.mem_ctrl.wrQLenPdf::51                       0                       # What write queue length does an incoming req see
system.mem_ctrl.wrQLenPdf::52                       0                       # What write queue length does an incoming req see
system.mem_ctrl.wrQLenPdf::53                       0                       # What write queue length does an incoming req see
system.mem_ctrl.wrQLenPdf::54                       0                       # What write queue length does an incoming req see
system.mem_ctrl.wrQLenPdf::55                       0                       # What write queue length does an incoming req see
system.mem_ctrl.wrQLenPdf::56                       0                       # What write queue length does an incoming req see
system.mem_ctrl.wrQLenPdf::57                       0                       # What write queue length does an incoming req see
system.mem_ctrl.wrQLenPdf::58                       0                       # What write queue length does an incoming req see
system.mem_ctrl.wrQLenPdf::59                       0                       # What write queue length does an incoming req see
system.mem_ctrl.wrQLenPdf::60                       0                       # What write queue length does an incoming req see
system.mem_ctrl.wrQLenPdf::61                       0                       # What write queue length does an incoming req see
system.mem_ctrl.wrQLenPdf::62                       0                       # What write queue length does an incoming req see
system.mem_ctrl.wrQLenPdf::63                       0                       # What write queue length does an incoming req see
system.mem_ctrl.bytesPerActivate::samples         2149                       # Bytes accessed per row activation
system.mem_ctrl.bytesPerActivate::mean     250.639367                       # Bytes accessed per row activation
system.mem_ctrl.bytesPerActivate::gmean    172.386159                       # Bytes accessed per row activation
system.mem_ctrl.bytesPerActivate::stdev    238.608198                       # Bytes accessed per row activation
system.mem_ctrl.bytesPerActivate::0-127           658     30.62%     30.62% # Bytes accessed per row activation
system.mem_ctrl.bytesPerActivate::128-255          705     32.81%     63.42% # Bytes accessed per row activation
system.mem_ctrl.bytesPerActivate::256-383          309     14.38%     77.80% # Bytes accessed per row activation
system.mem_ctrl.bytesPerActivate::384-511          175      8.14%     85.95% # Bytes accessed per row activation
system.mem_ctrl.bytesPerActivate::512-639           82      3.82%     89.76% # Bytes accessed per row activation
system.mem_ctrl.bytesPerActivate::640-767           83      3.86%     93.62% # Bytes accessed per row activation
system.mem_ctrl.bytesPerActivate::768-895           44      2.05%     95.67% # Bytes accessed per row activation
system.mem_ctrl.bytesPerActivate::896-1023           17      0.79%     96.46% # Bytes accessed per row activation
system.mem_ctrl.bytesPerActivate::1024-1151           76      3.54%    100.00% # Bytes accessed per row activation
system.mem_ctrl.bytesPerActivate::total          2149                       # Bytes accessed per row activation
system.mem_ctrl.rdPerTurnAround::samples           53                       # Reads before turning the bus around for writes
system.mem_ctrl.rdPerTurnAround::mean      130.830189                       # Reads before turning the bus around for writes
system.mem_ctrl.rdPerTurnAround::gmean      56.869429                       # Reads before turning the bus around for writes
system.mem_ctrl.rdPerTurnAround::stdev     291.186943                       # Reads before turning the bus around for writes
system.mem_ctrl.rdPerTurnAround::0-63              31     58.49%     58.49% # Reads before turning the bus around for writes
system.mem_ctrl.rdPerTurnAround::64-127            15     28.30%     86.79% # Reads before turning the bus around for writes
system.mem_ctrl.rdPerTurnAround::128-191            3      5.66%     92.45% # Reads before turning the bus around for writes
system.mem_ctrl.rdPerTurnAround::384-447            1      1.89%     94.34% # Reads before turning the bus around for writes
system.mem_ctrl.rdPerTurnAround::768-831            1      1.89%     96.23% # Reads before turning the bus around for writes
system.mem_ctrl.rdPerTurnAround::1024-1087            1      1.89%     98.11% # Reads before turning the bus around for writes
system.mem_ctrl.rdPerTurnAround::1728-1791            1      1.89%    100.00% # Reads before turning the bus around for writes
system.mem_ctrl.rdPerTurnAround::total             53                       # Reads before turning the bus around for writes
system.mem_ctrl.wrPerTurnAround::samples           53                       # Writes before turning the bus around for reads
system.mem_ctrl.wrPerTurnAround::mean       16.792453                       # Writes before turning the bus around for reads
system.mem_ctrl.wrPerTurnAround::gmean      16.764517                       # Writes before turning the bus around for reads
system.mem_ctrl.wrPerTurnAround::stdev       0.987586                       # Writes before turning the bus around for reads
system.mem_ctrl.wrPerTurnAround::16                31     58.49%     58.49% # Writes before turning the bus around for reads
system.mem_ctrl.wrPerTurnAround::17                 3      5.66%     64.15% # Writes before turning the bus around for reads
system.mem_ctrl.wrPerTurnAround::18                18     33.96%     98.11% # Writes before turning the bus around for reads
system.mem_ctrl.wrPerTurnAround::19                 1      1.89%    100.00% # Writes before turning the bus around for reads
system.mem_ctrl.wrPerTurnAround::total             53                       # Writes before turning the bus around for reads
system.mem_ctrl.bytesReadDRAM                  481920                       # Total number of bytes read from DRAM
system.mem_ctrl.bytesReadWrQ                    18880                       # Total number of bytes read from write queue
system.mem_ctrl.bytesWritten                    56960                       # Total number of bytes written to DRAM
system.mem_ctrl.bytesReadSys                   500800                       # Total read bytes from the system interface side
system.mem_ctrl.bytesWrittenSys                107136                       # Total written bytes from the system interface side
system.mem_ctrl.avgRdBW                        128.77                       # Average DRAM read bandwidth in MiByte/s
system.mem_ctrl.avgWrBW                         15.22                       # Average achieved write bandwidth in MiByte/s
system.mem_ctrl.avgRdBWSys                     133.82                       # Average system read bandwidth in MiByte/s
system.mem_ctrl.avgWrBWSys                      28.63                       # Average system write bandwidth in MiByte/s
system.mem_ctrl.peakBW                       12800.00                       # Theoretical peak bandwidth in MiByte/s
system.mem_ctrl.busUtil                          1.12                       # Data bus utilization in percentage
system.mem_ctrl.busUtilRead                      1.01                       # Data bus utilization in percentage for reads
system.mem_ctrl.busUtilWrite                     0.12                       # Data bus utilization in percentage for writes
system.mem_ctrl.totGap                     3741933000                       # Total gap between requests
system.mem_ctrl.avgGap                      393929.15                       # Average gap between requests
system.mem_ctrl.masterReadBytes::.cpu.inst       340480                       # Per-master bytes read from memory
system.mem_ctrl.masterReadBytes::.cpu.data       141440                       # Per-master bytes read from memory
system.mem_ctrl.masterWriteBytes::.writebacks        56960                       # Per-master bytes write to memory
system.mem_ctrl.masterReadRate::.cpu.inst 90978564.672057107091                       # Per-master bytes read from memory rate (Bytes/sec)
system.mem_ctrl.masterReadRate::.cpu.data 37793727.053617708385                       # Per-master bytes read from memory rate (Bytes/sec)
system.mem_ctrl.masterWriteRate::.writebacks 15220098.225212562829                       # Per-master bytes write to memory rate (Bytes/sec)
system.mem_ctrl.masterReadAccesses::.cpu.inst         5320                       # Per-master read serviced memory accesses
system.mem_ctrl.masterReadAccesses::.cpu.data         2505                       # Per-master read serviced memory accesses
system.mem_ctrl.masterWriteAccesses::.writebacks         1674                       # Per-master write serviced memory accesses
system.mem_ctrl.masterReadTotalLat::.cpu.inst    144181500                       # Per-master read total memory access latency
system.mem_ctrl.masterReadTotalLat::.cpu.data     59938000                       # Per-master read total memory access latency
system.mem_ctrl.masterWriteTotalLat::.writebacks  62888282500                       # Per-master write total memory access latency
system.mem_ctrl.masterReadAvgLat::.cpu.inst     27101.79                       # Per-master read average memory access latency
system.mem_ctrl.masterReadAvgLat::.cpu.data     23927.35                       # Per-master read average memory access latency
system.mem_ctrl.masterWriteAvgLat::.writebacks  37567671.74                       # Per-master write average memory access latency
system.mem_ctrl.pageHitRate                     74.19                       # Row buffer hit rate, read and write combined
system.mem_ctrl.rank1.actEnergy               6383160                       # Energy for activate commands per rank (pJ)
system.mem_ctrl.rank1.preEnergy               3388935                       # Energy for precharge commands per rank (pJ)
system.mem_ctrl.rank1.readEnergy             25582620                       # Energy for read commands per rank (pJ)
system.mem_ctrl.rank1.writeEnergy             2991060                       # Energy for write commands per rank (pJ)
system.mem_ctrl.rank1.refreshEnergy      295027200.000000                       # Energy for refresh commands per rank (pJ)
system.mem_ctrl.rank1.actBackEnergy         968512080                       # Energy for active background per rank (pJ)
system.mem_ctrl.rank1.preBackEnergy         621500160                       # Energy for precharge background per rank (pJ)
system.mem_ctrl.rank1.actPowerDownEnergy            0                       # Energy for active power-down per rank (pJ)
system.mem_ctrl.rank1.prePowerDownEnergy            0                       # Energy for precharge power-down per rank (pJ)
system.mem_ctrl.rank1.selfRefreshEnergy             0                       # Energy for self refresh per rank (pJ)
system.mem_ctrl.rank1.totalEnergy          1923385215                       # Total energy per rank (pJ)
system.mem_ctrl.rank1.averagePower         513.941571                       # Core power per rank (mW)
system.mem_ctrl.rank1.totalIdleTime                 0                       # Total Idle time Per DRAM Rank
system.mem_ctrl.rank1.memoryStateTime::IDLE   1606965250                       # Time in different power states
system.mem_ctrl.rank1.memoryStateTime::REF    124800000                       # Time in different power states
system.mem_ctrl.rank1.memoryStateTime::SREF            0                       # Time in different power states
system.mem_ctrl.rank1.memoryStateTime::PRE_PDN            0                       # Time in different power states
system.mem_ctrl.rank1.memoryStateTime::ACT   2010654750                       # Time in different power states
system.mem_ctrl.rank1.memoryStateTime::ACT_PDN            0                       # Time in different power states
system.mem_ctrl.rank0.actEnergy               8974980                       # Energy for activate commands per rank (pJ)
system.mem_ctrl.rank0.preEnergy               4766520                       # Energy for precharge commands per rank (pJ)
system.mem_ctrl.rank0.readEnergy             28181580                       # Energy for read commands per rank (pJ)
system.mem_ctrl.rank0.writeEnergy             1654740                       # Energy for write commands per rank (pJ)
system.mem_ctrl.rank0.refreshEnergy      295027200.000000                       # Energy for refresh commands per rank (pJ)
system.mem_ctrl.rank0.actBackEnergy        1005055350                       # Energy for active background per rank (pJ)
system.mem_ctrl.rank0.preBackEnergy         590726880                       # Energy for precharge background per rank (pJ)
system.mem_ctrl.rank0.actPowerDownEnergy            0                       # Energy for active power-down per rank (pJ)
system.mem_ctrl.rank0.prePowerDownEnergy            0                       # Energy for precharge power-down per rank (pJ)
system.mem_ctrl.rank0.selfRefreshEnergy             0                       # Energy for self refresh per rank (pJ)
system.mem_ctrl.rank0.totalEnergy          1934387250                       # Total energy per rank (pJ)
system.mem_ctrl.rank0.averagePower         516.881390                       # Core power per rank (mW)
system.mem_ctrl.rank0.totalIdleTime                 0                       # Total Idle time Per DRAM Rank
system.mem_ctrl.rank0.memoryStateTime::IDLE   1523592750                       # Time in different power states
system.mem_ctrl.rank0.memoryStateTime::REF    124800000                       # Time in different power states
system.mem_ctrl.rank0.memoryStateTime::SREF            0                       # Time in different power states
system.mem_ctrl.rank0.memoryStateTime::PRE_PDN            0                       # Time in different power states
system.mem_ctrl.rank0.memoryStateTime::ACT   2094027250                       # Time in different power states
system.mem_ctrl.rank0.memoryStateTime::ACT_PDN            0                       # Time in different power states
system.mem_ctrl.power_state.pwrStateResidencyTicks::UNDEFINED   3742420000                       # Cumulative time (in ticks) in various power states
system.cache_medium.blocked_cycles::no_mshrs            0                       # number of cycles access was blocked
system.cache_medium.blocked_cycles::no_targets            0                       # number of cycles access was blocked
system.cache_medium.blocked::no_mshrs               0                       # number of cycles access was blocked
system.cache_medium.blocked::no_targets             0                       # number of cycles access was blocked
system.cache_medium.avg_blocked_cycles::no_mshrs          nan                       # average number of cycles each access was blocked
system.cache_medium.avg_blocked_cycles::no_targets          nan                       # average number of cycles each access was blocked
system.cache_medium.replacements                    0                       # number of replacements
system.cache_medium.power_state.pwrStateResidencyTicks::UNDEFINED   3742420000                       # Cumulative time (in ticks) in various power states
system.cache_medium.tags.tagsinuse                  0                       # Cycle average of tags in use
system.cache_medium.tags.total_refs                 0                       # Total number of references to valid blocks.
system.cache_medium.tags.sampled_refs               0                       # Sample count of references to valid blocks.
system.cache_medium.tags.avg_refs                 nan                       # Average number of references to valid blocks.
system.cache_medium.tags.warmup_cycle               0                       # Cycle when the warmup percentage was hit.
system.cache_medium.tags.tag_accesses               0                       # Number of tag accesses
system.cache_medium.tags.data_accesses              0                       # Number of data accesses
system.cache_medium.tags.power_state.pwrStateResidencyTicks::UNDEFINED   3742420000                       # Cumulative time (in ticks) in various power states
system.clk_domain.clock                          1000                       # Clock period in ticks
system.clk_domain.voltage_domain.voltage            1                       # Voltage in Volts
system.dcache.demand_hits::.cpu.data           297148                       # number of demand (read+write) hits
system.dcache.demand_hits::total               297148                       # number of demand (read+write) hits
system.dcache.overall_hits::.cpu.data          299241                       # number of overall hits
system.dcache.overall_hits::total              299241                       # number of overall hits
system.dcache.demand_misses::.cpu.data           3969                       # number of demand (read+write) misses
system.dcache.demand_misses::total               3969                       # number of demand (read+write) misses
system.dcache.overall_misses::.cpu.data          3979                       # number of overall misses
system.dcache.overall_misses::total              3979                       # number of overall misses
system.dcache.demand_miss_latency::.cpu.data    194432000                       # number of demand (read+write) miss cycles
system.dcache.demand_miss_latency::total    194432000                       # number of demand (read+write) miss cycles
system.dcache.overall_miss_latency::.cpu.data    195081000                       # number of overall miss cycles
system.dcache.overall_miss_latency::total    195081000                       # number of overall miss cycles
system.dcache.demand_accesses::.cpu.data       301117                       # number of demand (read+write) accesses
system.dcache.demand_accesses::total           301117                       # number of demand (read+write) accesses
system.dcache.overall_accesses::.cpu.data       303220                       # number of overall (read+write) accesses
system.dcache.overall_accesses::total          303220                       # number of overall (read+write) accesses
system.dcache.demand_miss_rate::.cpu.data     0.013181                       # miss rate for demand accesses
system.dcache.demand_miss_rate::total        0.013181                       # miss rate for demand accesses
system.dcache.overall_miss_rate::.cpu.data     0.013122                       # miss rate for overall accesses
system.dcache.overall_miss_rate::total       0.013122                       # miss rate for overall accesses
system.dcache.demand_avg_miss_latency::.cpu.data 48987.654321                       # average overall miss latency
system.dcache.demand_avg_miss_latency::total 48987.654321                       # average overall miss latency
system.dcache.overall_avg_miss_latency::.cpu.data 49027.645137                       # average overall miss latency
system.dcache.overall_avg_miss_latency::total 49027.645137                       # average overall miss latency
system.dcache.blocked_cycles::no_mshrs              0                       # number of cycles access was blocked
system.dcache.blocked_cycles::no_targets            0                       # number of cycles access was blocked
system.dcache.blocked::no_mshrs                     0                       # number of cycles access was blocked
system.dcache.blocked::no_targets                   0                       # number of cycles access was blocked
system.dcache.avg_blocked_cycles::no_mshrs          nan                       # average number of cycles each access was blocked
system.dcache.avg_blocked_cycles::no_targets          nan                       # average number of cycles each access was blocked
system.dcache.writebacks::.writebacks            2053                       # number of writebacks
system.dcache.writebacks::total                  2053                       # number of writebacks
system.dcache.demand_mshr_misses::.cpu.data         3969                       # number of demand (read+write) MSHR misses
system.dcache.demand_mshr_misses::total          3969                       # number of demand (read+write) MSHR misses
system.dcache.overall_mshr_misses::.cpu.data         3979                       # number of overall MSHR misses
system.dcache.overall_mshr_misses::total         3979                       # number of overall MSHR misses
system.dcache.demand_mshr_miss_latency::.cpu.data    186496000                       # number of demand (read+write) MSHR miss cycles
system.dcache.demand_mshr_miss_latency::total    186496000                       # number of demand (read+write) MSHR miss cycles
system.dcache.overall_mshr_miss_latency::.cpu.data    187125000                       # number of overall MSHR miss cycles
system.dcache.overall_mshr_miss_latency::total    187125000                       # number of overall MSHR miss cycles
system.dcache.demand_mshr_miss_rate::.cpu.data     0.013181                       # mshr miss rate for demand accesses
system.dcache.demand_mshr_miss_rate::total     0.013181                       # mshr miss rate for demand accesses
system.dcache.overall_mshr_miss_rate::.cpu.data     0.013122                       # mshr miss rate for overall accesses
system.dcache.overall_mshr_miss_rate::total     0.013122                       # mshr miss rate for overall accesses
system.dcache.demand_avg_mshr_miss_latency::.cpu.data 46988.158226                       # average overall mshr miss latency
system.dcache.demand_avg_mshr_miss_latency::total 46988.158226                       # average overall mshr miss latency
system.dcache.overall_avg_mshr_miss_latency::.cpu.data 47028.147776                       # average overall mshr miss latency
system.dcache.overall_avg_mshr_miss_latency::total 47028.147776                       # average overall mshr miss latency
system.dcache.replacements                       3722                       # number of replacements
system.dcache.ReadReq_hits::.cpu.data          198705                       # number of ReadReq hits
system.dcache.ReadReq_hits::total              198705                       # number of ReadReq hits
system.dcache.ReadReq_misses::.cpu.data          2563                       # number of ReadReq misses
system.dcache.ReadReq_misses::total              2563                       # number of ReadReq misses
system.dcache.ReadReq_miss_latency::.cpu.data    118303000                       # number of ReadReq miss cycles
system.dcache.ReadReq_miss_latency::total    118303000                       # number of ReadReq miss cycles
system.dcache.ReadReq_accesses::.cpu.data       201268                       # number of ReadReq accesses(hits+misses)
system.dcache.ReadReq_accesses::total          201268                       # number of ReadReq accesses(hits+misses)
system.dcache.ReadReq_miss_rate::.cpu.data     0.012734                       # miss rate for ReadReq accesses
system.dcache.ReadReq_miss_rate::total       0.012734                       # miss rate for ReadReq accesses
system.dcache.ReadReq_avg_miss_latency::.cpu.data 46158.017948                       # average ReadReq miss latency
system.dcache.ReadReq_avg_miss_latency::total 46158.017948                       # average ReadReq miss latency
system.dcache.ReadReq_mshr_misses::.cpu.data         2563                       # number of ReadReq MSHR misses
system.dcache.ReadReq_mshr_misses::total         2563                       # number of ReadReq MSHR misses
system.dcache.ReadReq_mshr_miss_latency::.cpu.data    113179000                       # number of ReadReq MSHR miss cycles
system.dcache.ReadReq_mshr_miss_latency::total    113179000                       # number of ReadReq MSHR miss cycles
system.dcache.ReadReq_mshr_miss_rate::.cpu.data     0.012734                       # mshr miss rate for ReadReq accesses
system.dcache.ReadReq_mshr_miss_rate::total     0.012734                       # mshr miss rate for ReadReq accesses
system.dcache.ReadReq_avg_mshr_miss_latency::.cpu.data 44158.798283                       # average ReadReq mshr miss latency
system.dcache.ReadReq_avg_mshr_miss_latency::total 44158.798283                       # average ReadReq mshr miss latency
system.dcache.WriteReq_hits::.cpu.data          98443                       # number of WriteReq hits
system.dcache.WriteReq_hits::total              98443                       # number of WriteReq hits
system.dcache.WriteReq_misses::.cpu.data         1406                       # number of WriteReq misses
system.dcache.WriteReq_misses::total             1406                       # number of WriteReq misses
system.dcache.WriteReq_miss_latency::.cpu.data     76129000                       # number of WriteReq miss cycles
system.dcache.WriteReq_miss_latency::total     76129000                       # number of WriteReq miss cycles
system.dcache.WriteReq_accesses::.cpu.data        99849                       # number of WriteReq accesses(hits+misses)
system.dcache.WriteReq_accesses::total          99849                       # number of WriteReq accesses(hits+misses)
system.dcache.WriteReq_miss_rate::.cpu.data     0.014081                       # miss rate for WriteReq accesses
system.dcache.WriteReq_miss_rate::total      0.014081                       # miss rate for WriteReq accesses
system.dcache.WriteReq_avg_miss_latency::.cpu.data 54145.803698                       # average WriteReq miss latency
system.dcache.WriteReq_avg_miss_latency::total 54145.803698                       # average WriteReq miss latency
system.dcache.WriteReq_mshr_misses::.cpu.data         1406                       # number of WriteReq MSHR misses
system.dcache.WriteReq_mshr_misses::total         1406                       # number of WriteReq MSHR misses
system.dcache.WriteReq_mshr_miss_latency::.cpu.data     73317000                       # number of WriteReq MSHR miss cycles
system.dcache.WriteReq_mshr_miss_latency::total     73317000                       # number of WriteReq MSHR miss cycles
system.dcache.WriteReq_mshr_miss_rate::.cpu.data     0.014081                       # mshr miss rate for WriteReq accesses
system.dcache.WriteReq_mshr_miss_rate::total     0.014081                       # mshr miss rate for WriteReq accesses
system.dcache.WriteReq_avg_mshr_miss_latency::.cpu.data 52145.803698                       # average WriteReq mshr miss latency
system.dcache.WriteReq_avg_mshr_miss_latency::total 52145.803698                       # average WriteReq mshr miss latency
system.dcache.SoftPFReq_hits::.cpu.data          2093                       # number of SoftPFReq hits
system.dcache.SoftPFReq_hits::total              2093                       # number of SoftPFReq hits
system.dcache.SoftPFReq_misses::.cpu.data           10                       # number of SoftPFReq misses
system.dcache.SoftPFReq_misses::total              10                       # number of SoftPFReq misses
system.dcache.SoftPFReq_miss_latency::.cpu.data       649000                       # number of SoftPFReq miss cycles
system.dcache.SoftPFReq_miss_latency::total       649000                       # number of SoftPFReq miss cycles
system.dcache.SoftPFReq_accesses::.cpu.data         2103                       # number of SoftPFReq accesses(hits+misses)
system.dcache.SoftPFReq_accesses::total          2103                       # number of SoftPFReq accesses(hits+misses)
system.dcache.SoftPFReq_miss_rate::.cpu.data     0.004755                       # miss rate for SoftPFReq accesses
system.dcache.SoftPFReq_miss_rate::total     0.004755                       # miss rate for SoftPFReq accesses
system.dcache.SoftPFReq_avg_miss_latency::.cpu.data        64900                       # average SoftPFReq miss latency
system.dcache.SoftPFReq_avg_miss_latency::total        64900                       # average SoftPFReq miss latency
system.dcache.SoftPFReq_mshr_misses::.cpu.data           10                       # number of SoftPFReq MSHR misses
system.dcache.SoftPFReq_mshr_misses::total           10                       # number of SoftPFReq MSHR misses
system.dcache.SoftPFReq_mshr_miss_latency::.cpu.data       629000                       # number of SoftPFReq MSHR miss cycles
system.dcache.SoftPFReq_mshr_miss_latency::total       629000                       # number of SoftPFReq MSHR miss cycles
system.dcache.SoftPFReq_mshr_miss_rate::.cpu.data     0.004755                       # mshr miss rate for SoftPFReq accesses
system.dcache.SoftPFReq_mshr_miss_rate::total     0.004755                       # mshr miss rate for SoftPFReq accesses
system.dcache.SoftPFReq_avg_mshr_miss_latency::.cpu.data        62900                       # average SoftPFReq mshr miss latency
system.dcache.SoftPFReq_avg_mshr_miss_latency::total        62900                       # average SoftPFReq mshr miss latency
system.dcache.power_state.pwrStateResidencyTicks::UNDEFINED   3742420000                       # Cumulative time (in ticks) in various power states
system.dcache.tags.tagsinuse               248.726993                       # Cycle average of tags in use
system.dcache.tags.total_refs                  157958                       # Total number of references to valid blocks.
system.dcache.tags.sampled_refs                  3722                       # Sample count of references to valid blocks.
system.dcache.tags.avg_refs                 42.439011                       # Average number of references to valid blocks.
system.dcache.tags.warmup_cycle                167000                       # Cycle when the warmup percentage was hit.
system.dcache.tags.occ_blocks::.cpu.data   248.726993                       # Average occupied blocks per requestor
system.dcache.tags.occ_percent::.cpu.data     0.971590                       # Average percentage of cache occupancy
system.dcache.tags.occ_percent::total        0.971590                       # Average percentage of cache occupancy
system.dcache.tags.occ_task_id_blocks::1024          256                       # Occupied blocks per task id
system.dcache.tags.age_task_id_blocks_1024::0            4                       # Occupied blocks per task id
system.dcache.tags.age_task_id_blocks_1024::1            1                       # Occupied blocks per task id
system.dcache.tags.age_task_id_blocks_1024::3          251                       # Occupied blocks per task id
system.dcache.tags.occ_task_id_percent::1024            1                       # Percentage of cache occupancy per task id
system.dcache.tags.tag_accesses                307198                       # Number of tag accesses
system.dcache.tags.data_accesses               307198                       # Number of data accesses
system.dcache.tags.power_state.pwrStateResidencyTicks::UNDEFINED   3742420000                       # Cumulative time (in ticks) in various power states
system.cache_large.blocked_cycles::no_mshrs            0                       # number of cycles access was blocked
system.cache_large.blocked_cycles::no_targets            0                       # number of cycles access was blocked
system.cache_large.blocked::no_mshrs                0                       # number of cycles access was blocked
system.cache_large.blocked::no_targets              0                       # number of cycles access was blocked
system.cache_large.avg_blocked_cycles::no_mshrs          nan                       # average number of cycles each access was blocked
system.cache_large.avg_blocked_cycles::no_targets          nan                       # average number of cycles each access was blocked
system.cache_large.replacements                     0                       # number of replacements
system.cache_large.power_state.pwrStateResidencyTicks::UNDEFINED   3742420000                       # Cumulative time (in ticks) in various power states
system.cache_large.tags.tagsinuse                   0                       # Cycle average of tags in use
system.cache_large.tags.total_refs                  0                       # Total number of references to valid blocks.
system.cache_large.tags.sampled_refs                0                       # Sample count of references to valid blocks.
system.cache_large.tags.avg_refs                  nan                       # Average number of references to valid blocks.
system.cache_large.tags.warmup_cycle                0                       # Cycle when the warmup percentage was hit.
system.cache_large.tags.tag_accesses                0                       # Number of tag accesses
system.cache_large.tags.data_accesses               0                       # Number of data accesses
system.cache_large.tags.power_state.pwrStateResidencyTicks::UNDEFINED   3742420000                       # Cumulative time (in ticks) in various power states
system.l2cache.demand_hits::.cpu.inst            1377                       # number of demand (read+write) hits
[...]
system.dcache.tags.age_task_id_blocks_1024::4          175                       # Occupied blocks per task id
system.dcache.tags.occ_task_id_percent::1024            1                       # Percentage of cache occupancy per task id
system.dcache.tags.tag_accesses               1442297                       # Number of tag accesses
system.dcache.tags.data_accesses              1442297                       # Number of data accesses
system.dcache.tags.power_state.pwrStateResidencyTicks::UNDEFINED  17682846000                       # Cumulative time (in ticks) in various power states
system.cache_large.blocked_cycles::no_mshrs            0                       # number of cycles access was blocked
system.cache_large.blocked_cycles::no_targets            0                       # number of cycles access was blocked
system.cache_large.blocked::no_mshrs                0                       # number of cycles access was blocked
system.cache_large.blocked::no_targets              0                       # number of cycles access was blocked
system.cache_large.avg_blocked_cycles::no_mshrs          nan                       # average number of cycles each access was blocked
system.cache_large.avg_blocked_cycles::no_targets          nan                       # average number of cycles each access was blocked
system.cache_large.replacements                     0                       # number of replacements
system.cache_large.power_state.pwrStateResidencyTicks::UNDEFINED  17682846000                       # Cumulative time (in ticks) in various power states
system.cache_large.tags.tagsinuse                   0                       # Cycle average of tags in use
system.cache_large.tags.total_refs                  0                       # Total number of references to valid blocks.
system.cache_large.tags.sampled_refs                0                       # Sample count of references to valid blocks.
system.cache_large.tags.avg_refs                  nan                       # Average number of references to valid blocks.
system.cache_large.tags.warmup_cycle                0                       # Cycle when the warmup percentage was hit.
system.cache_large.tags.tag_accesses                0                       # Number of tag accesses
system.cache_large.tags.data_accesses               0                       # Number of data accesses
system.cache_large.tags.power_state.pwrStateResidencyTicks::UNDEFINED  17682846000                       # Cumulative time (in ticks) in various power states
system.l2cache.demand_hits::.cpu.inst            2426                       # number of demand (read+write) hits
system.l2cache.demand_hits::.cpu.data           10305                       # number of demand (read+write) hits
system.l2cache.demand_hits::total               12731                       # number of demand (read+write) hits
system.l2cache.overall_hits::.cpu.inst           2426                       # number of overall hits
system.l2cache.overall_hits::.cpu.data          10305                       # number of overall hits
system.l2cache.overall_hits::total              12731                       # number of overall hits
system.l2cache.demand_misses::.cpu.inst         13037                       # number of demand (read+write) misses
system.l2cache.demand_misses::.cpu.data         13325                       # number of demand (read+write) misses
system.l2cache.demand_misses::total             26362                       # number of demand (read+write) misses
system.l2cache.overall_misses::.cpu.inst        13037                       # number of overall misses
system.l2cache.overall_misses::.cpu.data        13325                       # number of overall misses
system.l2cache.overall_misses::total            26362                       # number of overall misses
system.l2cache.demand_miss_latency::.cpu.inst    858014000                       # number of demand (read+write) miss cycles
system.l2cache.demand_miss_latency::.cpu.data    787862000                       # number of demand (read+write) miss cycles
system.l2cache.demand_miss_latency::total   1645876000                       # number of demand (read+write) miss cycles
system.l2cache.overall_miss_latency::.cpu.inst    858014000                       # number of overall miss cycles
system.l2cache.overall_miss_latency::.cpu.data    787862000                       # number of overall miss cycles
system.l2cache.overall_miss_latency::total   1645876000                       # number of overall miss cycles
system.l2cache.demand_accesses::.cpu.inst        15463                       # number of demand (read+write) accesses
system.l2cache.demand_accesses::.cpu.data        23630                       # number of demand (read+write) accesses
system.l2cache.demand_accesses::total           39093                       # number of demand (read+write) accesses
system.l2cache.overall_accesses::.cpu.inst        15463                       # number of overall (read+write) accesses
system.l2cache.overall_accesses::.cpu.data        23630                       # number of overall (read+write) accesses
system.l2cache.overall_accesses::total          39093                       # number of overall (read+write) accesses
system.l2cache.demand_miss_rate::.cpu.inst     0.843109                       # miss rate for demand accesses
system.l2cache.demand_miss_rate::.cpu.data     0.563902                       # miss rate for demand accesses
system.l2cache.demand_miss_rate::total       0.674341                       # miss rate for demand accesses
system.l2cache.overall_miss_rate::.cpu.inst     0.843109                       # miss rate for overall accesses
system.l2cache.overall_miss_rate::.cpu.data     0.563902                       # miss rate for overall accesses
system.l2cache.overall_miss_rate::total      0.674341                       # miss rate for overall accesses
system.l2cache.demand_avg_miss_latency::.cpu.inst 65813.760835                       # average overall miss latency
system.l2cache.demand_avg_miss_latency::.cpu.data 59126.604128                       # average overall miss latency
system.l2cache.demand_avg_miss_latency::total 62433.654503                       # average overall miss latency
system.l2cache.overall_avg_miss_latency::.cpu.inst 65813.760835                       # average overall miss latency
system.l2cache.overall_avg_miss_latency::.cpu.data 59126.604128                       # average overall miss latency
system.l2cache.overall_avg_miss_latency::total 62433.654503                       # average overall miss latency
system.l2cache.blocked_cycles::no_mshrs             0                       # number of cycles access was blocked
system.l2cache.blocked_cycles::no_targets            0                       # number of cycles access was blocked
system.l2cache.blocked::no_mshrs                    0                       # number of cycles access was blocked
system.l2cache.blocked::no_targets                  0                       # number of cycles access was blocked
system.l2cache.avg_blocked_cycles::no_mshrs          nan                       # average number of cycles each access was blocked
system.l2cache.avg_blocked_cycles::no_targets          nan                       # average number of cycles each access was blocked
system.l2cache.writebacks::.writebacks           6515                       # number of writebacks
system.l2cache.writebacks::total                 6515                       # number of writebacks
system.l2cache.demand_mshr_misses::.cpu.inst        13037                       # number of demand (read+write) MSHR misses
system.l2cache.demand_mshr_misses::.cpu.data        13325                       # number of demand (read+write) MSHR misses
system.l2cache.demand_mshr_misses::total        26362                       # number of demand (read+write) MSHR misses
system.l2cache.overall_mshr_misses::.cpu.inst        13037                       # number of overall MSHR misses
system.l2cache.overall_mshr_misses::.cpu.data        13325                       # number of overall MSHR misses
system.l2cache.overall_mshr_misses::total        26362                       # number of overall MSHR misses
system.l2cache.demand_mshr_miss_latency::.cpu.inst    831940000                       # number of demand (read+write) MSHR miss cycles
system.l2cache.demand_mshr_miss_latency::.cpu.data    761212000                       # number of demand (read+write) MSHR miss cycles
system.l2cache.demand_mshr_miss_latency::total   1593152000                       # number of demand (read+write) MSHR miss cycles
system.l2cache.overall_mshr_miss_latency::.cpu.inst    831940000                       # number of overall MSHR miss cycles
system.l2cache.overall_mshr_miss_latency::.cpu.data    761212000                       # number of overall MSHR miss cycles
system.l2cache.overall_mshr_miss_latency::total   1593152000                       # number of overall MSHR miss cycles
system.l2cache.demand_mshr_miss_rate::.cpu.inst     0.843109                       # mshr miss rate for demand accesses
system.l2cache.demand_mshr_miss_rate::.cpu.data     0.563902                       # mshr miss rate for demand accesses
system.l2cache.demand_mshr_miss_rate::total     0.674341                       # mshr miss rate for demand accesses
system.l2cache.overall_mshr_miss_rate::.cpu.inst     0.843109                       # mshr miss rate for overall accesses
system.l2cache.overall_mshr_miss_rate::.cpu.data     0.563902                       # mshr miss rate for overall accesses
system.l2cache.overall_mshr_miss_rate::total     0.674341                       # mshr miss rate for overall accesses
system.l2cache.demand_avg_mshr_miss_latency::.cpu.inst 63813.760835                       # average overall mshr miss latency
system.l2cache.demand_avg_mshr_miss_latency::.cpu.data 57126.604128                       # average overall mshr miss latency
system.l2cache.demand_avg_mshr_miss_latency::total 60433.654503                       # average overall mshr miss latency
system.l2cache.overall_avg_mshr_miss_latency::.cpu.inst 63813.760835                       # average overall mshr miss latency
system.l2cache.overall_avg_mshr_miss_latency::.cpu.data 57126.604128                       # average overall mshr miss latency
system.l2cache.overall_avg_mshr_miss_latency::total 60433.654503                       # average overall mshr miss latency
system.l2cache.replacements                     32147                       # number of replacements
system.l2cache.ReadReq_hits::.cpu.inst           2426                       # number of ReadReq hits
system.l2cache.ReadReq_hits::.cpu.data          10305                       # number of ReadReq hits
system.l2cache.ReadReq_hits::total              12731                       # number of ReadReq hits
system.l2cache.ReadReq_misses::.cpu.inst        13037                       # number of ReadReq misses
system.l2cache.ReadReq_misses::.cpu.data        13325                       # number of ReadReq misses
system.l2cache.ReadReq_misses::total            26362                       # number of ReadReq misses
system.l2cache.ReadReq_miss_latency::.cpu.inst    858014000                       # number of ReadReq miss cycles
system.l2cache.ReadReq_miss_latency::.cpu.data    787862000                       # number of ReadReq miss cycles
system.l2cache.ReadReq_miss_latency::total   1645876000                       # number of ReadReq miss cycles
system.l2cache.ReadReq_accesses::.cpu.inst        15463                       # number of ReadReq accesses(hits+misses)
system.l2cache.ReadReq_accesses::.cpu.data        23630                       # number of ReadReq accesses(hits+misses)
system.l2cache.ReadReq_accesses::total          39093                       # number of ReadReq accesses(hits+misses)
system.l2cache.ReadReq_miss_rate::.cpu.inst     0.843109                       # miss rate for ReadReq accesses
system.l2cache.ReadReq_miss_rate::.cpu.data     0.563902                       # miss rate for ReadReq accesses
system.l2cache.ReadReq_miss_rate::total      0.674341                       # miss rate for ReadReq accesses
system.l2cache.ReadReq_avg_miss_latency::.cpu.inst 65813.760835                       # average ReadReq miss latency
system.l2cache.ReadReq_avg_miss_latency::.cpu.data 59126.604128                       # average ReadReq miss latency
system.l2cache.ReadReq_avg_miss_latency::total 62433.654503                       # average ReadReq miss latency
system.l2cache.ReadReq_mshr_misses::.cpu.inst        13037                       # number of ReadReq MSHR misses
system.l2cache.ReadReq_mshr_misses::.cpu.data        13325                       # number of ReadReq MSHR misses
system.l2cache.ReadReq_mshr_misses::total        26362                       # number of ReadReq MSHR misses
system.l2cache.ReadReq_mshr_miss_latency::.cpu.inst    831940000                       # number of ReadReq MSHR miss cycles
system.l2cache.ReadReq_mshr_miss_latency::.cpu.data    761212000                       # number of ReadReq MSHR miss cycles
system.l2cache.ReadReq_mshr_miss_latency::total   1593152000                       # number of ReadReq MSHR miss cycles
system.l2cache.ReadReq_mshr_miss_rate::.cpu.inst     0.843109                       # mshr miss rate for ReadReq accesses
system.l2cache.ReadReq_mshr_miss_rate::.cpu.data     0.563902                       # mshr miss rate for ReadReq accesses
system.l2cache.ReadReq_mshr_miss_rate::total     0.674341                       # mshr miss rate for ReadReq accesses
system.l2cache.ReadReq_avg_mshr_miss_latency::.cpu.inst 63813.760835                       # average ReadReq mshr miss latency
system.l2cache.ReadReq_avg_mshr_miss_latency::.cpu.data 57126.604128                       # average ReadReq mshr miss latency
system.l2cache.ReadReq_avg_mshr_miss_latency::total 60433.654503                       # average ReadReq mshr miss latency
system.l2cache.WritebackDirty_hits::.writebacks        10584                       # number of WritebackDirty hits
system.l2cache.WritebackDirty_hits::total        10584                       # number of WritebackDirty hits
system.l2cache.WritebackDirty_accesses::.writebacks        10584                       # number of WritebackDirty accesses(hits+misses)
system.l2cache.WritebackDirty_accesses::total        10584                       # number of WritebackDirty accesses(hits+misses)
system.l2cache.power_state.pwrStateResidencyTicks::UNDEFINED  17682846000                       # Cumulative time (in ticks) in various power states
system.l2cache.tags.tagsinuse              509.403834                       # Cycle average of tags in use
system.l2cache.tags.total_refs                  49677                       # Total number of references to valid blocks.
system.l2cache.tags.sampled_refs                32659                       # Sample count of references to valid blocks.
system.l2cache.tags.avg_refs                 1.521081                       # Average number of references to valid blocks.
system.l2cache.tags.warmup_cycle                76000                       # Cycle when the warmup percentage was hit.
system.l2cache.tags.occ_blocks::.writebacks    22.951503                       # Average occupied blocks per requestor
system.l2cache.tags.occ_blocks::.cpu.inst   461.245409                       # Average occupied blocks per requestor
system.l2cache.tags.occ_blocks::.cpu.data    25.206922                       # Average occupied blocks per requestor
system.l2cache.tags.occ_percent::.writebacks     0.044827                       # Average percentage of cache occupancy
system.l2cache.tags.occ_percent::.cpu.inst     0.900870                       # Average percentage of cache occupancy
system.l2cache.tags.occ_percent::.cpu.data     0.049232                       # Average percentage of cache occupancy
system.l2cache.tags.occ_percent::total       0.994929                       # Average percentage of cache occupancy
system.l2cache.tags.occ_task_id_blocks::1024          512                       # Occupied blocks per task id
system.l2cache.tags.age_task_id_blocks_1024::0            3                       # Occupied blocks per task id
system.l2cache.tags.age_task_id_blocks_1024::1           13                       # Occupied blocks per task id
system.l2cache.tags.age_task_id_blocks_1024::2           58                       # Occupied blocks per task id
system.l2cache.tags.age_task_id_blocks_1024::3          404                       # Occupied blocks per task id
system.l2cache.tags.age_task_id_blocks_1024::4           34                       # Occupied blocks per task id
system.l2cache.tags.occ_task_id_percent::1024            1                       # Percentage of cache occupancy per task id
system.l2cache.tags.tag_accesses                82336                       # Number of tag accesses
system.l2cache.tags.data_accesses               82336                       # Number of data accesses
system.l2cache.tags.power_state.pwrStateResidencyTicks::UNDEFINED  17682846000                       # Cumulative time (in ticks) in various power states
system.l2bar.trans_dist::ReadReq                39093                       # Transaction distribution
system.l2bar.trans_dist::ReadResp               39093                       # Transaction distribution
system.l2bar.trans_dist::WritebackDirty         10584                       # Transaction distribution
system.l2bar.pkt_count_system.dcache.mem_side::system.l2cache.cpu_side        57844                       # Packet count per connected master and slave (bytes)
system.l2bar.pkt_count_system.icache.mem_side::system.l2cache.cpu_side        30926                       # Packet count per connected master and slave (bytes)
system.l2bar.pkt_count::total                   88770                       # Packet count per connected master and slave (bytes)
system.l2bar.pkt_size_system.dcache.mem_side::system.l2cache.cpu_side      2189696                       # Cumulative packet size per connected master and slave (bytes)
system.l2bar.pkt_size_system.icache.mem_side::system.l2cache.cpu_side       989632                       # Cumulative packet size per connected master and slave (bytes)
system.l2bar.pkt_size::total                  3179328                       # Cumulative packet size per connected master and slave (bytes)
system.l2bar.respLayer1.occupancy            77315000                       # Layer occupancy (ticks)
system.l2bar.respLayer1.utilization               0.4                       # Layer utilization (%)
system.l2bar.reqLayer0.occupancy             92013000                       # Layer occupancy (ticks)
system.l2bar.reqLayer0.utilization                0.5                       # Layer utilization (%)
system.l2bar.respLayer0.occupancy           118150000                       # Layer occupancy (ticks)
system.l2bar.respLayer0.utilization               0.7                       # Layer utilization (%)
system.l2bar.power_state.pwrStateResidencyTicks::UNDEFINED  17682846000                       # Cumulative time (in ticks) in various power states
system.cpu.dtb.walker.power_state.pwrStateResidencyTicks::UNDEFINED  17682846000                       # Cumulative time (in ticks) in various power states
system.cpu.interrupts.clk_domain.clock          16000                       # Clock period in ticks
system.cpu.itb.walker.power_state.pwrStateResidencyTicks::UNDEFINED  17682846000                       # Cumulative time (in ticks) in various power states
system.cpu.power_state.numTransitions               1                       # Number of power state transitions
system.cpu.power_state.pwrStateResidencyTicks::ON  17682846000                       # Cumulative time (in ticks) in various power states

---------- End Simulation Statistics   ----------
