
---------- Begin Simulation Statistics ----------
final_tick                               466953912000                       # Number of ticks from beginning of simulation (restored from checkpoints and never reset)
host_inst_rate                                 165587                       # Simulator instruction rate (inst/s)
host_mem_usage                                 682876                       # Number of bytes of host memory used
host_op_rate                                   194896                       # Simulator op (including micro ops) rate (op/s)
host_seconds                                    30.20                       # Real time elapsed on the host
host_tick_rate                            15464205279                       # Simulator tick rate (ticks/s)
sim_freq                                 1000000000000                       # Frequency of simulated ticks
sim_insts                                     5000000                       # Number of instructions simulated
sim_ops                                       5885046                       # Number of ops (including micro ops) simulated
sim_seconds                                  0.466954                       # Number of seconds simulated
sim_ticks                                466953912000                       # Number of ticks simulated
system.cachebus.snoop_filter.hit_multi_requests            0                       # Number of requests hitting in the snoop filter with multiple (>1) holders of the requested data.
system.cachebus.snoop_filter.hit_multi_snoops            0                       # Number of snoops hitting in the snoop filter with multiple (>1) holders of the requested data.
system.cachebus.snoop_filter.hit_single_requests            0                       # Number of requests hitting in the snoop filter with a single holder of the requested data.
system.cachebus.snoop_filter.hit_single_snoops            0                       # Number of snoops hitting in the snoop filter with a single holder of the requested data.
system.cachebus.snoop_filter.tot_requests            0                       # Total number of requests made to the snoop filter.
system.cachebus.snoop_filter.tot_snoops             0                       # Total number of snoops made to the snoop filter.
system.cpu.Branches                            221199                       # Number of branches fetched
system.cpu.committedInsts                     5000000                       # Number of instructions committed
system.cpu.committedOps                       5885046                       # Number of ops (including micro ops) committed
system.cpu.dtb.rdAccesses                        4335                       # TLB accesses on read requests
system.cpu.dtb.rdMisses                            16                       # TLB misses on read requests
system.cpu.dtb.wrAccesses                     4343112                       # TLB accesses on write requests
system.cpu.dtb.wrMisses                         16935                       # TLB misses on write requests
system.cpu.idle_fraction                            0                       # Percentage of idle cycles
system.cpu.itb.rdAccesses                           0                       # TLB accesses on read requests
system.cpu.itb.rdMisses                             0                       # TLB misses on read requests
system.cpu.itb.wrAccesses                     7838122                       # TLB accesses on write requests
system.cpu.itb.wrMisses                            47                       # TLB misses on write requests
system.cpu.not_idle_fraction                        1                       # Percentage of non-idle cycles
system.cpu.numCycles                        466953912                       # number of cpu cycles simulated
system.cpu.numWorkItemsCompleted                    0                       # number of work items this cpu completed
system.cpu.numWorkItemsStarted                      0                       # number of work items this cpu started
system.cpu.num_busy_cycles                  466953912                       # Number of busy cycles
system.cpu.num_cc_register_reads              1105476                       # number of times the CC registers were read
system.cpu.num_cc_register_writes              877466                       # number of times the CC registers were written
system.cpu.num_conditional_control_insts       220200                       # number of instructions that are conditional controls
system.cpu.num_fp_alu_accesses                4115986                       # Number of float alu accesses
system.cpu.num_fp_insts                       4115986                       # number of float instructions
system.cpu.num_fp_register_reads              4116497                       # number of times the floating registers were read
system.cpu.num_fp_register_writes                 609                       # number of times the floating registers were written
system.cpu.num_func_calls                         651                       # number of times a function call or return occured
system.cpu.num_idle_cycles                          0                       # Number of idle cycles
system.cpu.num_int_alu_accesses               5892792                       # Number of integer alu accesses
system.cpu.num_int_insts                      5892792                       # number of integer instructions
system.cpu.num_int_register_reads            15049111                       # number of times the integer registers were read
system.cpu.num_int_register_writes            1328668                       # number of times the integer registers were written
system.cpu.num_load_insts                        4320                       # Number of load instructions
system.cpu.num_mem_refs                       4347432                       # number of memory refs
system.cpu.num_store_insts                    4343112                       # Number of store instructions
system.cpu.num_vec_alu_accesses                     0                       # Number of vector alu accesses
system.cpu.num_vec_insts                            0                       # number of vector instructions
system.cpu.num_vec_register_reads                   0                       # number of times the vector registers were read
system.cpu.num_vec_register_writes                  0                       # number of times the vector registers were written
system.cpu.op_class::No_OpClass                   186      0.00%      0.00% # Class of executed instruction
system.cpu.op_class::IntAlu                   1545242     26.22%     26.22% # Class of executed instruction
system.cpu.op_class::IntMult                       29      0.00%     26.22% # Class of executed instruction
system.cpu.op_class::IntDiv                        70      0.00%     26.22% # Class of executed instruction
system.cpu.op_class::FloatAdd                      19      0.00%     26.22% # Class of executed instruction
system.cpu.op_class::FloatCmp                       0      0.00%     26.22% # Class of executed instruction
system.cpu.op_class::FloatCvt                       0      0.00%     26.22% # Class of executed instruction
system.cpu.op_class::FloatMult                      0      0.00%     26.22% # Class of executed instruction
system.cpu.op_class::FloatMultAcc                   0      0.00%     26.22% # Class of executed instruction
system.cpu.op_class::FloatDiv                       0      0.00%     26.22% # Class of executed instruction
system.cpu.op_class::FloatMisc                      0      0.00%     26.22% # Class of executed instruction
system.cpu.op_class::FloatSqrt                      0      0.00%     26.22% # Class of executed instruction
system.cpu.op_class::SimdAdd                        0      0.00%     26.22% # Class of executed instruction
system.cpu.op_class::SimdAddAcc                     0      0.00%     26.22% # Class of executed instruction
system.cpu.op_class::SimdAlu                      152      0.00%     26.23% # Class of executed instruction
system.cpu.op_class::SimdCmp                        0      0.00%     26.23% # Class of executed instruction
system.cpu.op_class::SimdCvt                      158      0.00%     26.23% # Class of executed instruction
system.cpu.op_class::SimdMisc                     221      0.00%     26.23% # Class of executed instruction
system.cpu.op_class::SimdMult                       0      0.00%     26.23% # Class of executed instruction
system.cpu.op_class::SimdMultAcc                    0      0.00%     26.23% # Class of executed instruction
system.cpu.op_class::SimdShift                      0      0.00%     26.23% # Class of executed instruction
system.cpu.op_class::SimdShiftAcc                   0      0.00%     26.23% # Class of executed instruction
system.cpu.op_class::SimdDiv                        0      0.00%     26.23% # Class of executed instruction
system.cpu.op_class::SimdSqrt                       0      0.00%     26.23% # Class of executed instruction
system.cpu.op_class::SimdFloatAdd                   0      0.00%     26.23% # Class of executed instruction
system.cpu.op_class::SimdFloatAlu                   0      0.00%     26.23% # Class of executed instruction
system.cpu.op_class::SimdFloatCmp                   0      0.00%     26.23% # Class of executed instruction
system.cpu.op_class::SimdFloatCvt                   2      0.00%     26.23% # Class of executed instruction
system.cpu.op_class::SimdFloatDiv                   0      0.00%     26.23% # Class of executed instruction
system.cpu.op_class::SimdFloatMisc                  0      0.00%     26.23% # Class of executed instruction
system.cpu.op_class::SimdFloatMult                  0      0.00%     26.23% # Class of executed instruction
system.cpu.op_class::SimdFloatMultAcc               0      0.00%     26.23% # Class of executed instruction
system.cpu.op_class::SimdFloatSqrt                  0      0.00%     26.23% # Class of executed instruction
system.cpu.op_class::SimdReduceAdd                  0      0.00%     26.23% # Class of executed instruction
system.cpu.op_class::SimdReduceAlu                  0      0.00%     26.23% # Class of executed instruction
system.cpu.op_class::SimdReduceCmp                  0      0.00%     26.23% # Class of executed instruction
system.cpu.op_class::SimdFloatReduceAdd             0      0.00%     26.23% # Class of executed instruction
system.cpu.op_class::SimdFloatReduceCmp             0      0.00%     26.23% # Class of executed instruction
system.cpu.op_class::SimdAes                        0      0.00%     26.23% # Class of executed instruction
system.cpu.op_class::SimdAesMix                     0      0.00%     26.23% # Class of executed instruction
system.cpu.op_class::SimdSha1Hash                   0      0.00%     26.23% # Class of executed instruction
system.cpu.op_class::SimdSha1Hash2                  0      0.00%     26.23% # Class of executed instruction
system.cpu.op_class::SimdSha256Hash                 0      0.00%     26.23% # Class of executed instruction
system.cpu.op_class::SimdSha256Hash2                0      0.00%     26.23% # Class of executed instruction
system.cpu.op_class::SimdShaSigma2                  0      0.00%     26.23% # Class of executed instruction
system.cpu.op_class::SimdShaSigma3                  0      0.00%     26.23% # Class of executed instruction
system.cpu.op_class::SimdPredAlu                    0      0.00%     26.23% # Class of executed instruction
system.cpu.op_class::MemRead                     4218      0.07%     26.31% # Class of executed instruction
system.cpu.op_class::MemWrite                  227846      3.87%     30.17% # Class of executed instruction
system.cpu.op_class::FloatMemRead                 102      0.00%     30.17% # Class of executed instruction
system.cpu.op_class::FloatMemWrite            4115266     69.83%    100.00% # Class of executed instruction
system.cpu.op_class::IprAccess                      0      0.00%    100.00% # Class of executed instruction
system.cpu.op_class::InstPrefetch                   0      0.00%    100.00% # Class of executed instruction
system.cpu.op_class::total                    5893511                       # Class of executed instruction
system.cpu.workload.numSyscalls                    19                       # Number of system calls
system.membus.snoop_filter.hit_multi_requests            0                       # Number of requests hitting in the snoop filter with multiple (>1) holders of the requested data.
system.membus.snoop_filter.hit_multi_snoops            0                       # Number of snoops hitting in the snoop filter with multiple (>1) holders of the requested data.
system.membus.snoop_filter.hit_single_requests       411322                       # Number of requests hitting in the snoop filter with a single holder of the requested data.
system.membus.snoop_filter.hit_single_snoops            0                       # Number of snoops hitting in the snoop filter with a single holder of the requested data.
system.membus.snoop_filter.tot_requests        855412                       # Total number of requests made to the snoop filter.
system.membus.snoop_filter.tot_snoops               0                       # Total number of snoops made to the snoop filter.
system.membus.trans_dist::ReadReq             7842457                       # Transaction distribution
system.membus.trans_dist::ReadResp            7842456                       # Transaction distribution
system.membus.trans_dist::WriteReq             781947                       # Transaction distribution
system.membus.trans_dist::WriteResp            781947                       # Transaction distribution
system.membus.trans_dist::WritebackDirty       411322                       # Transaction distribution
system.membus.trans_dist::ReadExReq            444090                       # Transaction distribution
system.membus.trans_dist::ReadExResp           444090                       # Transaction distribution
system.membus.pkt_count_system.cpu.icache_port::system.mem_ctrl.port     15676243                       # Packet count per connected master and slave (bytes)
system.membus.pkt_count_system.cpu.icache_port::total     15676243                       # Packet count per connected master and slave (bytes)
system.membus.pkt_count_system.memobj.mem_side::system.mem_ctrl.port      1572564                       # Packet count per connected master and slave (bytes)
system.membus.pkt_count_system.memobj.mem_side::total      1572564                       # Packet count per connected master and slave (bytes)
system.membus.pkt_count_system.cache.mem_side::system.mem_ctrl.port      1299502                       # Packet count per connected master and slave (bytes)
system.membus.pkt_count_system.cache.mem_side::total      1299502                       # Packet count per connected master and slave (bytes)
system.membus.pkt_count::total               18548309                       # Packet count per connected master and slave (bytes)
system.membus.pkt_size_system.cpu.icache_port::system.mem_ctrl.port     62704968                       # Cumulative packet size per connected master and slave (bytes)
system.membus.pkt_size_system.cpu.icache_port::total     62704968                       # Cumulative packet size per connected master and slave (bytes)
system.membus.pkt_size_system.memobj.mem_side::system.mem_ctrl.port      6124063                       # Cumulative packet size per connected master and slave (bytes)
system.membus.pkt_size_system.memobj.mem_side::total      6124063                       # Cumulative packet size per connected master and slave (bytes)
system.membus.pkt_size_system.cache.mem_side::system.mem_ctrl.port     54746368                       # Cumulative packet size per connected master and slave (bytes)
system.membus.pkt_size_system.cache.mem_side::total     54746368                       # Cumulative packet size per connected master and slave (bytes)
system.membus.pkt_size::total               123575399                       # Cumulative packet size per connected master and slave (bytes)
system.membus.snoops                                0                       # Total snoops (count)
system.membus.snoopTraffic                          0                       # Total snoop traffic (bytes)
system.membus.snoop_fanout::samples           9068494                       # Request fanout histogram
system.membus.snoop_fanout::mean                    0                       # Request fanout histogram
system.membus.snoop_fanout::stdev                   0                       # Request fanout histogram
system.membus.snoop_fanout::underflows              0      0.00%      0.00% # Request fanout histogram
system.membus.snoop_fanout::0                 9068494    100.00%    100.00% # Request fanout histogram
system.membus.snoop_fanout::1                       0      0.00%    100.00% # Request fanout histogram
system.membus.snoop_fanout::overflows               0      0.00%    100.00% # Request fanout histogram
system.membus.snoop_fanout::min_value               0                       # Request fanout histogram
system.membus.snoop_fanout::max_value               0                       # Request fanout histogram
system.membus.snoop_fanout::total             9068494                       # Request fanout histogram
system.membus.reqLayer2.occupancy         11907051000                       # Layer occupancy (ticks)
system.membus.reqLayer2.utilization               2.5                       # Layer utilization (%)
system.membus.respLayer1.occupancy          791731000                       # Layer occupancy (ticks)
system.membus.respLayer1.utilization              0.2                       # Layer utilization (%)
system.membus.respLayer0.occupancy        17769658500                       # Layer occupancy (ticks)
system.membus.respLayer0.utilization              3.8                       # Layer utilization (%)
system.membus.respLayer2.occupancy         2361097750                       # Layer occupancy (ticks)
system.membus.respLayer2.utilization              0.5                       # Layer utilization (%)
system.membus.power_state.pwrStateResidencyTicks::UNDEFINED 466953912000                       # Cumulative time (in ticks) in various power states
system.mem_ctrl.bytes_read::.cpu.inst        62704968                       # Number of bytes read from this memory
system.mem_ctrl.bytes_read::.cpu.data        28449191                       # Number of bytes read from this memory
system.mem_ctrl.bytes_read::total            91154159                       # Number of bytes read from this memory
system.mem_ctrl.bytes_inst_read::.cpu.inst     62704968                       # Number of instructions bytes read from this memory
system.mem_ctrl.bytes_inst_read::total       62704968                       # Number of instructions bytes read from this memory
system.mem_ctrl.bytes_written::.writebacks     26324608                       # Number of bytes written to this memory
system.mem_ctrl.bytes_written::.cpu.data      6096632                       # Number of bytes written to this memory
system.mem_ctrl.bytes_written::total         32421240                       # Number of bytes written to this memory
system.mem_ctrl.num_reads::.cpu.inst          7838121                       # Number of read requests responded to by this memory
system.mem_ctrl.num_reads::.cpu.data           448425                       # Number of read requests responded to by this memory
system.mem_ctrl.num_reads::total              8286546                       # Number of read requests responded to by this memory
system.mem_ctrl.num_writes::.writebacks        411322                       # Number of write requests responded to by this memory
system.mem_ctrl.num_writes::.cpu.data          781947                       # Number of write requests responded to by this memory
system.mem_ctrl.num_writes::total             1193269                       # Number of write requests responded to by this memory
system.mem_ctrl.bw_read::.cpu.inst          134285133                       # Total read bandwidth from this memory (bytes/s)
system.mem_ctrl.bw_read::.cpu.data           60925051                       # Total read bandwidth from this memory (bytes/s)
system.mem_ctrl.bw_read::total              195210184                       # Total read bandwidth from this memory (bytes/s)
system.mem_ctrl.bw_inst_read::.cpu.inst     134285133                       # Instruction read bandwidth from this memory (bytes/s)
system.mem_ctrl.bw_inst_read::total         134285133                       # Instruction read bandwidth from this memory (bytes/s)
system.mem_ctrl.bw_write::.writebacks        56375174                       # Write bandwidth from this memory (bytes/s)
system.mem_ctrl.bw_write::.cpu.data          13056175                       # Write bandwidth from this memory (bytes/s)
system.mem_ctrl.bw_write::total              69431349                       # Write bandwidth from this memory (bytes/s)
system.mem_ctrl.bw_total::.writebacks        56375174                       # Total bandwidth to/from this memory (bytes/s)
system.mem_ctrl.bw_total::.cpu.inst         134285133                       # Total bandwidth to/from this memory (bytes/s)
system.mem_ctrl.bw_total::.cpu.data          73981226                       # Total bandwidth to/from this memory (bytes/s)
system.mem_ctrl.bw_total::total             264641533                       # Total bandwidth to/from this memory (bytes/s)
system.mem_ctrl.avgPriority_.writebacks::samples    411320.00                       # Average QoS priority value for accepted requests
system.mem_ctrl.avgPriority_.cpu.inst::samples   7838122.00                       # Average QoS priority value for accepted requests
system.mem_ctrl.avgPriority_.cpu.data::samples    546233.00                       # Average QoS priority value for accepted requests
system.mem_ctrl.priorityMinLatency       0.000000018750                       # per QoS priority minimum request to response latency (s)
system.mem_ctrl.priorityMaxLatency       0.054793736250                       # per QoS priority maximum request to response latency (s)
system.mem_ctrl.numReadWriteTurnArounds         31859                       # Number of turnarounds from READ to WRITE
system.mem_ctrl.numWriteReadTurnArounds         31859                       # Number of turnarounds from WRITE to READ
system.mem_ctrl.numStayReadState             17852359                       # Number of times bus staying in READ state
system.mem_ctrl.numStayWriteState              478679                       # Number of times bus staying in WRITE state
system.mem_ctrl.readReqs                      8286547                       # Number of read requests accepted
system.mem_ctrl.writeReqs                     1193269                       # Number of write requests accepted
system.mem_ctrl.readBursts                    8286547                       # Number of DRAM read bursts, including those serviced by the write queue
system.mem_ctrl.writeBursts                   1193269                       # Number of DRAM write bursts, including those merged in the write queue
system.mem_ctrl.servicedByWrQ                     668                       # Number of DRAM read bursts serviced by the write queue
system.mem_ctrl.mergedWrBursts                 683473                       # Number of DRAM write bursts merged with an existing one
system.mem_ctrl.neitherReadNorWriteReqs             0                       # Number of requests that are neither read nor write
system.mem_ctrl.perBankRdBursts::0            7843450                       # Per bank write bursts
system.mem_ctrl.perBankRdBursts::1              28741                       # Per bank write bursts
system.mem_ctrl.perBankRdBursts::2              28457                       # Per bank write bursts
system.mem_ctrl.perBankRdBursts::3              28903                       # Per bank write bursts
system.mem_ctrl.perBankRdBursts::4              28788                       # Per bank write bursts
system.mem_ctrl.perBankRdBursts::5              28162                       # Per bank write bursts
system.mem_ctrl.perBankRdBursts::6              28614                       # Per bank write bursts
system.mem_ctrl.perBankRdBursts::7              27772                       # Per bank write bursts
system.mem_ctrl.perBankRdBursts::8              27970                       # Per bank write bursts
system.mem_ctrl.perBankRdBursts::9              29356                       # Per bank write bursts
system.mem_ctrl.perBankRdBursts::10             28769                       # Per bank write bursts
system.mem_ctrl.perBankRdBursts::11             29602                       # Per bank write bursts
system.mem_ctrl.perBankRdBursts::12             31392                       # Per bank write bursts
system.mem_ctrl.perBankRdBursts::13             37776                       # Per bank write bursts
system.mem_ctrl.perBankRdBursts::14             28723                       # Per bank write bursts
system.mem_ctrl.perBankRdBursts::15             29404                       # Per bank write bursts
system.mem_ctrl.perBankWrBursts::0              31872                       # Per bank write bursts
system.mem_ctrl.perBankWrBursts::1              32671                       # Per bank write bursts
system.mem_ctrl.perBankWrBursts::2              31956                       # Per bank write bursts
system.mem_ctrl.perBankWrBursts::3              31872                       # Per bank write bursts
system.mem_ctrl.perBankWrBursts::4              31808                       # Per bank write bursts
system.mem_ctrl.perBankWrBursts::5              31744                       # Per bank write bursts
system.mem_ctrl.perBankWrBursts::6              31744                       # Per bank write bursts
system.mem_ctrl.perBankWrBursts::7              31744                       # Per bank write bursts
system.mem_ctrl.perBankWrBursts::8              31747                       # Per bank write bursts
system.mem_ctrl.perBankWrBursts::9              31813                       # Per bank write bursts
system.mem_ctrl.perBankWrBursts::10             31772                       # Per bank write bursts
system.mem_ctrl.perBankWrBursts::11             31811                       # Per bank write bursts
system.mem_ctrl.perBankWrBursts::12             31765                       # Per bank write bursts
system.mem_ctrl.perBankWrBursts::13             31774                       # Per bank write bursts
system.mem_ctrl.perBankWrBursts::14             31809                       # Per bank write bursts
system.mem_ctrl.perBankWrBursts::15             31872                       # Per bank write bursts
system.mem_ctrl.avgRdQLen                        1.00                       # Average read queue length when enqueuing
system.mem_ctrl.avgWrQLen                       25.84                       # Average write queue length when enqueuing
system.mem_ctrl.totQLat                   27604442250                       # Total ticks spent queuing
system.mem_ctrl.totBusLat                 41429395000                       # Total ticks spent in databus transfers
system.mem_ctrl.totMemAccLat             182964673500                       # Total ticks spent from burst creation until serviced by the DRAM
system.mem_ctrl.avgQLat                       3331.50                       # Average queueing delay per DRAM burst
system.mem_ctrl.avgBusLat                     5000.00                       # Average bus latency per DRAM burst
system.mem_ctrl.avgMemAccLat                 22081.50                       # Average memory access latency per DRAM burst
system.mem_ctrl.numRdRetry                          0                       # Number of times read queue was full causing retry
system.mem_ctrl.numWrRetry                          0                       # Number of times write queue was full causing retry
system.mem_ctrl.readRowHits                   7652736                       # Number of row buffer hits during reads
system.mem_ctrl.writeRowHits                   476467                       # Number of row buffer hits during writes
system.mem_ctrl.readRowHitRate                  92.36                       # Row buffer hit rate for reads
system.mem_ctrl.writeRowHitRate                 93.46                       # Row buffer hit rate for writes
system.mem_ctrl.readPktSize::0                    569                       # Read request sizes (log2)
system.mem_ctrl.readPktSize::1                     34                       # Read request sizes (log2)
system.mem_ctrl.readPktSize::2                    761                       # Read request sizes (log2)
system.mem_ctrl.readPktSize::3                7841093                       # Read request sizes (log2)
system.mem_ctrl.readPktSize::4                      0                       # Read request sizes (log2)
system.mem_ctrl.readPktSize::5                      0                       # Read request sizes (log2)
system.mem_ctrl.readPktSize::6                 444090                       # Read request sizes (log2)
system.mem_ctrl.writePktSize::0                   210                       # Write request sizes (log2)
system.mem_ctrl.writePktSize::1                    15                       # Write request sizes (log2)
system.mem_ctrl.writePktSize::2                 39346                       # Write request sizes (log2)
system.mem_ctrl.writePktSize::3                742376                       # Write request sizes (log2)
system.mem_ctrl.writePktSize::4                     0                       # Write request sizes (log2)
system.mem_ctrl.writePktSize::5                     0                       # Write request sizes (log2)
system.mem_ctrl.writePktSize::6                411322                       # Write request sizes (log2)
system.mem_ctrl.rdQLenPdf::0                  8285864                       # What read queue length does an incoming req see
system.mem_ctrl.rdQLenPdf::1                       15                       # What read queue length does an incoming req see
system.mem_ctrl.rdQLenPdf::2                        0                       # What read queue length does an incoming req see
system.mem_ctrl.rdQLenPdf::3                        0                       # What read queue length does an incoming req see
system.mem_ctrl.rdQLenPdf::4                        0                       # What read queue length does an incoming req see
system.mem_ctrl.rdQLenPdf::5                        0                       # What read queue length does an incoming req see
system.mem_ctrl.rdQLenPdf::6                        0                       # What read queue length does an incoming req see
system.mem_ctrl.rdQLenPdf::7                        0                       # What read queue length does an incoming req see
system.mem_ctrl.rdQLenPdf::8                        0                       # What read queue length does an incoming req see
system.mem_ctrl.rdQLenPdf::9                        0                       # What read queue length does an incoming req see
system.mem_ctrl.rdQLenPdf::10                       0                       # What read queue length does an incoming req see
system.mem_ctrl.rdQLenPdf::11                       0                       # What read queue length does an incoming req see
system.mem_ctrl.rdQLenPdf::12                       0                       # What read queue length does an incoming req see
system.mem_ctrl.rdQLenPdf::13                       0                       # What read queue length does an incoming req see
system.mem_ctrl.rdQLenPdf::14                       0                       # What read queue length does an incoming req see
system.mem_ctrl.rdQLenPdf::15                       0                       # What read queue length does an incoming req see
system.mem_ctrl.rdQLenPdf::16                       0                       # What read queue length does an incoming req see
system.mem_ctrl.rdQLenPdf::17                       0                       # What read queue length does an incoming req see
system.mem_ctrl.rdQLenPdf::18                       0                       # What read queue length does an incoming req see
system.mem_ctrl.rdQLenPdf::19                       0                       # What read queue length does an incoming req see
system.mem_ctrl.rdQLenPdf::20                       0                       # What read queue length does an incoming req see
system.mem_ctrl.rdQLenPdf::21                       0                       # What read queue length does an incoming req see
system.mem_ctrl.rdQLenPdf::22                       0                       # What read queue length does an incoming req see
system.mem_ctrl.rdQLenPdf::23                       0                       # What read queue length does an incoming req see
system.mem_ctrl.rdQLenPdf::24                       0                       # What read queue length does an incoming req see
system.mem_ctrl.rdQLenPdf::25                       0                       # What read queue length does an incoming req see
system.mem_ctrl.rdQLenPdf::26                       0                       # What read queue length does an incoming req see
system.mem_ctrl.rdQLenPdf::27                       0                       # What read queue length does an incoming req see
system.mem_ctrl.rdQLenPdf::28                       0                       # What read queue length does an incoming req see
system.mem_ctrl.rdQLenPdf::29                       0                       # What read queue length does an incoming req see
system.mem_ctrl.rdQLenPdf::30                       0                       # What read queue length does an incoming req see
system.mem_ctrl.rdQLenPdf::31                       0                       # What read queue length does an incoming req see
system.mem_ctrl.wrQLenPdf::0                        1                       # What write queue length does an incoming req see
system.mem_ctrl.wrQLenPdf::1                        1                       # What write queue length does an incoming req see
system.mem_ctrl.wrQLenPdf::2                        1                       # What write queue length does an incoming req see
system.mem_ctrl.wrQLenPdf::3                        1                       # What write queue length does an incoming req see
system.mem_ctrl.wrQLenPdf::4                        1                       # What write queue length does an incoming req see
system.mem_ctrl.wrQLenPdf::5                        1                       # What write queue length does an incoming req see
system.mem_ctrl.wrQLenPdf::6                        1                       # What write queue length does an incoming req see
system.mem_ctrl.wrQLenPdf::7                        1                       # What write queue length does an incoming req see
system.mem_ctrl.wrQLenPdf::8                        1                       # What write queue length does an incoming req see
system.mem_ctrl.wrQLenPdf::9                        1                       # What write queue length does an incoming req see
system.mem_ctrl.wrQLenPdf::10                       1                       # What write queue length does an incoming req see
system.mem_ctrl.wrQLenPdf::11                       1                       # What write queue length does an incoming req see
system.mem_ctrl.wrQLenPdf::12                       1                       # What write queue length does an incoming req see
system.mem_ctrl.wrQLenPdf::13                       1                       # What write queue length does an incoming req see
system.mem_ctrl.wrQLenPdf::14                       1                       # What write queue length does an incoming req see
system.mem_ctrl.wrQLenPdf::15                      16                       # What write queue length does an incoming req see
system.mem_ctrl.wrQLenPdf::16                      16                       # What write queue length does an incoming req see
system.mem_ctrl.wrQLenPdf::17                   31860                       # What write queue length does an incoming req see
system.mem_ctrl.wrQLenPdf::18                   31860                       # What write queue length does an incoming req see
system.mem_ctrl.wrQLenPdf::19                   31860                       # What write queue length does an incoming req see
system.mem_ctrl.wrQLenPdf::20                   31860                       # What write queue length does an incoming req see
system.mem_ctrl.wrQLenPdf::21                   31860                       # What write queue length does an incoming req see
system.mem_ctrl.wrQLenPdf::22                   31859                       # What write queue length does an incoming req see
system.mem_ctrl.wrQLenPdf::23                   31859                       # What write queue length does an incoming req see
system.mem_ctrl.wrQLenPdf::24                   31859                       # What write queue length does an incoming req see
system.mem_ctrl.wrQLenPdf::25                   31859                       # What write queue length does an incoming req see
system.mem_ctrl.wrQLenPdf::26                   31859                       # What write queue length does an incoming req see
system.mem_ctrl.wrQLenPdf::27                   31859                       # What write queue length does an incoming req see
system.mem_ctrl.wrQLenPdf::28                   31859                       # What write queue length does an incoming req see
system.mem_ctrl.wrQLenPdf::29                   31859                       # What write queue length does an incoming req see
system.mem_ctrl.wrQLenPdf::30                   31859                       # What write queue length does an incoming req see
system.mem_ctrl.wrQLenPdf::31                   31859                       # What write queue length does an incoming req see
system.mem_ctrl.wrQLenPdf::32                   31859                       # What write queue length does an incoming req see
system.mem_ctrl.wrQLenPdf::33                       0                       # What write queue length does an incoming req see
system.mem_ctrl.wrQLenPdf::34                       0                       # What write queue length does an incoming req see
system.mem_ctrl.wrQLenPdf::35                       0                       # What write queue length does an incoming req see
system.mem_ctrl.wrQLenPdf::36                       0                       # What write queue length does an incoming req see
system.mem_ctrl.wrQLenPdf::37                       0                       # What write queue length does an incoming req see
system.mem_ctrl.wrQLenPdf::38                       0                       # What write queue length does an incoming req see
system.mem_ctrl.wrQLenPdf::39                       0                       # What write queue length does an incoming req see
system.mem_ctrl.wrQLenPdf::40                       0                       # What write queue length does an incoming req see
system.mem_ctrl.wrQLenPdf::41                       0                       # What write queue length does an incoming req see
system.mem_ctrl.wrQLenPdf::42                       0                       # What write queue length does an incoming req see
system.mem_ctrl.wrQLenPdf::43                       0                       # What write queue length does an incoming req see
system.mem_ctrl.wrQLenPdf::44                       0                       # What write queue length does an incoming req see
system.mem_ctrl.wrQLenPdf::45                       0                       # What write queue length does an incoming req see
system.mem_ctrl.wrQLenPdf::46                       0                       # What write queue length does an incoming req see
system.mem_ctrl.wrQLenPdf::47                       0                       # What write queue length does an incoming req see
system.mem_ctrl.wrQLenPdf::48                       0                       # What write queue length does an incoming req see
system.mem_ctrl.wrQLenPdf::49                       0                       # What write queue length does an incoming req see
system.mem_ctrl.wrQLenPdf::50                       0                       # What write queue length does an incoming req see
system.mem_ctrl.wrQLenPdf::51                       0                       # What write queue length does an incoming req see
system.mem_ctrl.wrQLenPdf::52                       0                       # What write queue length does an incoming req see
system.mem_ctrl.wrQLenPdf::53                       0                       # What write queue length does an incoming req see
system.mem_ctrl.wrQLenPdf::54                       0                       # What write queue length does an incoming req see
system.mem_ctrl.wrQLenPdf::55                       0                       # What write queue length does an incoming req see
system.mem_ctrl.wrQLenPdf::56                       0                       # What write queue length does an incoming req see
system.mem_ctrl.wrQLenPdf::57                       0                       # What write queue length does an incoming req see
system.mem_ctrl.wrQLenPdf::58                       0                       # What write queue length does an incoming req see
system.mem_ctrl.wrQLenPdf::59                       0                       # What write queue length does an incoming req see
system.mem_ctrl.wrQLenPdf::60                       0                       # What write queue length does an incoming req see
system.mem_ctrl.wrQLenPdf::61                       0                       # What write queue length does an incoming req see
system.mem_ctrl.wrQLenPdf::62                       0                       # What write queue length does an incoming req see
system.mem_ctrl.wrQLenPdf::63                       0                       # What write queue length does an incoming req see
system.mem_ctrl.bytesPerActivate::samples       666448                       # Bytes accessed per row activation
system.mem_ctrl.bytesPerActivate::mean     844.658008                       # Bytes accessed per row activation
system.mem_ctrl.bytesPerActivate::gmean    718.325348                       # Bytes accessed per row activation
system.mem_ctrl.bytesPerActivate::stdev    314.326048                       # Bytes accessed per row activation
system.mem_ctrl.bytesPerActivate::0-127         34468      5.17%      5.17% # Bytes accessed per row activation
system.mem_ctrl.bytesPerActivate::128-255        19596      2.94%      8.11% # Bytes accessed per row activation
system.mem_ctrl.bytesPerActivate::256-383        30285      4.54%     12.66% # Bytes accessed per row activation
system.mem_ctrl.bytesPerActivate::384-511        40000      6.00%     18.66% # Bytes accessed per row activation
system.mem_ctrl.bytesPerActivate::512-639        29377      4.41%     23.07% # Bytes accessed per row activation
system.mem_ctrl.bytesPerActivate::640-767        17027      2.55%     25.62% # Bytes accessed per row activation
system.mem_ctrl.bytesPerActivate::768-895        11411      1.71%     27.33% # Bytes accessed per row activation
system.mem_ctrl.bytesPerActivate::896-1023         1375      0.21%     27.54% # Bytes accessed per row activation
system.mem_ctrl.bytesPerActivate::1024-1151       482909     72.46%    100.00% # Bytes accessed per row activation
system.mem_ctrl.bytesPerActivate::total        666448                       # Bytes accessed per row activation
system.mem_ctrl.rdPerTurnAround::samples        31859                       # Reads before turning the bus around for writes
system.mem_ctrl.rdPerTurnAround::mean      260.077152                       # Reads before turning the bus around for writes
system.mem_ctrl.rdPerTurnAround::gmean     243.413300                       # Reads before turning the bus around for writes
system.mem_ctrl.rdPerTurnAround::stdev    2834.765834                       # Reads before turning the bus around for writes
system.mem_ctrl.rdPerTurnAround::0-16383        31857     99.99%     99.99% # Reads before turning the bus around for writes
system.mem_ctrl.rdPerTurnAround::16384-32767            1      0.00%    100.00% # Reads before turning the bus around for writes
system.mem_ctrl.rdPerTurnAround::491520-507903            1      0.00%    100.00% # Reads before turning the bus around for writes
system.mem_ctrl.rdPerTurnAround::total          31859                       # Reads before turning the bus around for writes
system.mem_ctrl.wrPerTurnAround::samples        31859                       # Writes before turning the bus around for reads
system.mem_ctrl.wrPerTurnAround::mean       16.000942                       # Writes before turning the bus around for reads
system.mem_ctrl.wrPerTurnAround::gmean      16.000887                       # Writes before turning the bus around for reads
system.mem_ctrl.wrPerTurnAround::stdev       0.043387                       # Writes before turning the bus around for reads
system.mem_ctrl.wrPerTurnAround::16             31844     99.95%     99.95% # Writes before turning the bus around for reads
system.mem_ctrl.wrPerTurnAround::18                15      0.05%    100.00% # Writes before turning the bus around for reads
system.mem_ctrl.wrPerTurnAround::total          31859                       # Writes before turning the bus around for reads
system.mem_ctrl.bytesReadDRAM               530296256                       # Total number of bytes read from DRAM
system.mem_ctrl.bytesReadWrQ                    42752                       # Total number of bytes read from write queue
system.mem_ctrl.bytesWritten                 32625536                       # Total number of bytes written to DRAM
system.mem_ctrl.bytesReadSys                 91154167                       # Total read bytes from the system interface side
system.mem_ctrl.bytesWrittenSys              32421240                       # Total written bytes from the system interface side
system.mem_ctrl.avgRdBW                       1135.65                       # Average DRAM read bandwidth in MiByte/s
system.mem_ctrl.avgWrBW                         69.87                       # Average achieved write bandwidth in MiByte/s
system.mem_ctrl.avgRdBWSys                     195.21                       # Average system read bandwidth in MiByte/s
system.mem_ctrl.avgWrBWSys                      69.43                       # Average system write bandwidth in MiByte/s
system.mem_ctrl.peakBW                       12800.00                       # Theoretical peak bandwidth in MiByte/s
system.mem_ctrl.busUtil                          9.42                       # Data bus utilization in percentage
system.mem_ctrl.busUtilRead                      8.87                       # Data bus utilization in percentage for reads
system.mem_ctrl.busUtilWrite                     0.55                       # Data bus utilization in percentage for writes
system.mem_ctrl.totGap                   466953835000                       # Total gap between requests
system.mem_ctrl.avgGap                       49257.69                       # Average gap between requests
system.mem_ctrl.masterReadBytes::.cpu.inst     62704976                       # Per-master bytes read from memory
system.mem_ctrl.masterReadBytes::.cpu.data     28445321                       # Per-master bytes read from memory
system.mem_ctrl.masterWriteBytes::.writebacks     26323072                       # Per-master bytes write to memory
system.mem_ctrl.masterWriteBytes::.cpu.data       631841                       # Per-master bytes write to memory
system.mem_ctrl.masterReadRate::.cpu.inst 134285149.751566916704                       # Per-master bytes read from memory rate (Bytes/sec)
system.mem_ctrl.masterReadRate::.cpu.data 60916763.451378896832                       # Per-master bytes read from memory rate (Bytes/sec)
system.mem_ctrl.masterWriteRate::.writebacks 56371884.512662567198                       # Per-master bytes write to memory rate (Bytes/sec)
system.mem_ctrl.masterWriteRate::.cpu.data 1353112.124692939688                       # Per-master bytes write to memory rate (Bytes/sec)
system.mem_ctrl.masterReadAccesses::.cpu.inst      7838122                       # Per-master read serviced memory accesses
system.mem_ctrl.masterReadAccesses::.cpu.data       448425                       # Per-master read serviced memory accesses
system.mem_ctrl.masterWriteAccesses::.writebacks       411322                       # Per-master write serviced memory accesses
system.mem_ctrl.masterWriteAccesses::.cpu.data       781947                       # Per-master write serviced memory accesses
system.mem_ctrl.masterReadTotalLat::.cpu.inst 172160398250                       # Per-master read total memory access latency
system.mem_ctrl.masterReadTotalLat::.cpu.data  10804275250                       # Per-master read total memory access latency
system.mem_ctrl.masterWriteTotalLat::.writebacks 8544298336000                       # Per-master write total memory access latency
system.mem_ctrl.masterWriteTotalLat::.cpu.data 3074735237750                       # Per-master write total memory access latency
system.mem_ctrl.masterReadAvgLat::.cpu.inst     21964.50                       # Per-master read average memory access latency
system.mem_ctrl.masterReadAvgLat::.cpu.data     24093.83                       # Per-master read average memory access latency
system.mem_ctrl.masterWriteAvgLat::.writebacks  20772772.51                       # Per-master write average memory access latency
system.mem_ctrl.masterWriteAvgLat::.cpu.data   3932152.99                       # Per-master write average memory access latency
system.mem_ctrl.pageHitRate                     92.42                       # Row buffer hit rate, read and write combined
system.mem_ctrl.rank1.actEnergy             376242300                       # Energy for activate commands per rank (pJ)
system.mem_ctrl.rank1.preEnergy             199977525                       # Energy for precharge commands per rank (pJ)
system.mem_ctrl.rank1.readEnergy           1734962880                       # Energy for read commands per rank (pJ)
system.mem_ctrl.rank1.writeEnergy          1327774860                       # Energy for write commands per rank (pJ)
system.mem_ctrl.rank1.refreshEnergy      36860575440.000008                       # Energy for refresh commands per rank (pJ)
system.mem_ctrl.rank1.actBackEnergy       82951006740                       # Energy for active background per rank (pJ)
system.mem_ctrl.rank1.preBackEnergy      109456823040                       # Energy for precharge background per rank (pJ)
system.mem_ctrl.rank1.actPowerDownEnergy            0                       # Energy for active power-down per rank (pJ)
system.mem_ctrl.rank1.prePowerDownEnergy            0                       # Energy for precharge power-down per rank (pJ)
system.mem_ctrl.rank1.selfRefreshEnergy             0                       # Energy for self refresh per rank (pJ)
system.mem_ctrl.rank1.totalEnergy        232907362785                       # Total energy per rank (pJ)
system.mem_ctrl.rank1.averagePower         498.780194                       # Core power per rank (mW)
system.mem_ctrl.rank1.totalIdleTime                 0                       # Total Idle time Per DRAM Rank
system.mem_ctrl.rank1.memoryStateTime::IDLE 283573843250                       # Time in different power states
system.mem_ctrl.rank1.memoryStateTime::REF  15592460000                       # Time in different power states
system.mem_ctrl.rank1.memoryStateTime::SREF            0                       # Time in different power states
system.mem_ctrl.rank1.memoryStateTime::PRE_PDN            0                       # Time in different power states
system.mem_ctrl.rank1.memoryStateTime::ACT 167787608750                       # Time in different power states
system.mem_ctrl.rank1.memoryStateTime::ACT_PDN            0                       # Time in different power states
system.mem_ctrl.rank0.actEnergy            4382210700                       # Energy for activate commands per rank (pJ)
system.mem_ctrl.rank0.preEnergy            2329192635                       # Energy for precharge commands per rank (pJ)
system.mem_ctrl.rank0.readEnergy          57426213180                       # Energy for read commands per rank (pJ)
system.mem_ctrl.rank0.writeEnergy          1333245420                       # Energy for write commands per rank (pJ)
system.mem_ctrl.rank0.refreshEnergy      36860575440.000008                       # Energy for refresh commands per rank (pJ)
system.mem_ctrl.rank0.actBackEnergy      205103699640                       # Energy for active background per rank (pJ)
system.mem_ctrl.rank0.preBackEnergy        6591397440                       # Energy for precharge background per rank (pJ)
system.mem_ctrl.rank0.actPowerDownEnergy            0                       # Energy for active power-down per rank (pJ)
system.mem_ctrl.rank0.prePowerDownEnergy            0                       # Energy for precharge power-down per rank (pJ)
system.mem_ctrl.rank0.selfRefreshEnergy             0                       # Energy for self refresh per rank (pJ)
system.mem_ctrl.rank0.totalEnergy        314026534455                       # Total energy per rank (pJ)
system.mem_ctrl.rank0.averagePower         672.500061                       # Core power per rank (mW)
system.mem_ctrl.rank0.totalIdleTime                 0                       # Total Idle time Per DRAM Rank
system.mem_ctrl.rank0.memoryStateTime::IDLE  10716904000                       # Time in different power states
system.mem_ctrl.rank0.memoryStateTime::REF  15592460000                       # Time in different power states
system.mem_ctrl.rank0.memoryStateTime::SREF            0                       # Time in different power states
system.mem_ctrl.rank0.memoryStateTime::PRE_PDN            0                       # Time in different power states
system.mem_ctrl.rank0.memoryStateTime::ACT 440644548000                       # Time in different power states
system.mem_ctrl.rank0.memoryStateTime::ACT_PDN            0                       # Time in different power states
system.mem_ctrl.power_state.pwrStateResidencyTicks::UNDEFINED 466953912000                       # Cumulative time (in ticks) in various power states
system.cache.demand_hits::.cpu.data           3108610                       # number of demand (read+write) hits
system.cache.demand_hits::total               3108610                       # number of demand (read+write) hits
system.cache.overall_hits::.cpu.data          3108610                       # number of overall hits
system.cache.overall_hits::total              3108610                       # number of overall hits
system.cache.demand_misses::.cpu.data          444090                       # number of demand (read+write) misses
system.cache.demand_misses::total              444090                       # number of demand (read+write) misses
system.cache.overall_misses::.cpu.data         444090                       # number of overall misses
system.cache.overall_misses::total             444090                       # number of overall misses
system.cache.demand_miss_latency::.cpu.data  26401322000                       # number of demand (read+write) miss cycles
system.cache.demand_miss_latency::total   26401322000                       # number of demand (read+write) miss cycles
system.cache.overall_miss_latency::.cpu.data  26401322000                       # number of overall miss cycles
system.cache.overall_miss_latency::total  26401322000                       # number of overall miss cycles
system.cache.demand_accesses::.cpu.data       3552700                       # number of demand (read+write) accesses
system.cache.demand_accesses::total           3552700                       # number of demand (read+write) accesses
system.cache.overall_accesses::.cpu.data      3552700                       # number of overall (read+write) accesses
system.cache.overall_accesses::total          3552700                       # number of overall (read+write) accesses
system.cache.demand_miss_rate::.cpu.data     0.125001                       # miss rate for demand accesses
system.cache.demand_miss_rate::total         0.125001                       # miss rate for demand accesses
system.cache.overall_miss_rate::.cpu.data     0.125001                       # miss rate for overall accesses
system.cache.overall_miss_rate::total        0.125001                       # miss rate for overall accesses
system.cache.demand_avg_miss_latency::.cpu.data 59450.386183                       # average overall miss latency
system.cache.demand_avg_miss_latency::total 59450.386183                       # average overall miss latency
system.cache.overall_avg_miss_latency::.cpu.data 59450.386183                       # average overall miss latency
system.cache.overall_avg_miss_latency::total 59450.386183                       # average overall miss latency
system.cache.blocked_cycles::no_mshrs               0                       # number of cycles access was blocked
system.cache.blocked_cycles::no_targets             0                       # number of cycles access was blocked
system.cache.blocked::no_mshrs                      0                       # number of cycles access was blocked
system.cache.blocked::no_targets                    0                       # number of cycles access was blocked
system.cache.avg_blocked_cycles::no_mshrs          nan                       # average number of cycles each access was blocked
system.cache.avg_blocked_cycles::no_targets          nan                       # average number of cycles each access was blocked
system.cache.writebacks::.writebacks           411322                       # number of writebacks
system.cache.writebacks::total                 411322                       # number of writebacks
system.cache.demand_mshr_misses::.cpu.data       444090                       # number of demand (read+write) MSHR misses
system.cache.demand_mshr_misses::total         444090                       # number of demand (read+write) MSHR misses
system.cache.overall_mshr_misses::.cpu.data       444090                       # number of overall MSHR misses
system.cache.overall_mshr_misses::total        444090                       # number of overall MSHR misses
system.cache.demand_mshr_miss_latency::.cpu.data  25513142000                       # number of demand (read+write) MSHR miss cycles
system.cache.demand_mshr_miss_latency::total  25513142000                       # number of demand (read+write) MSHR miss cycles
system.cache.overall_mshr_miss_latency::.cpu.data  25513142000                       # number of overall MSHR miss cycles
system.cache.overall_mshr_miss_latency::total  25513142000                       # number of overall MSHR miss cycles
system.cache.demand_mshr_miss_rate::.cpu.data     0.125001                       # mshr miss rate for demand accesses
system.cache.demand_mshr_miss_rate::total     0.125001                       # mshr miss rate for demand accesses
system.cache.overall_mshr_miss_rate::.cpu.data     0.125001                       # mshr miss rate for overall accesses
system.cache.overall_mshr_miss_rate::total     0.125001                       # mshr miss rate for overall accesses
system.cache.demand_avg_mshr_miss_latency::.cpu.data 57450.386183                       # average overall mshr miss latency
system.cache.demand_avg_mshr_miss_latency::total 57450.386183                       # average overall mshr miss latency
system.cache.overall_avg_mshr_miss_latency::.cpu.data 57450.386183                       # average overall mshr miss latency
system.cache.overall_avg_mshr_miss_latency::total 57450.386183                       # average overall mshr miss latency
system.cache.replacements                      411322                       # number of replacements
system.cache.WriteReq_hits::.cpu.data         3108610                       # number of WriteReq hits
system.cache.WriteReq_hits::total             3108610                       # number of WriteReq hits
system.cache.WriteReq_misses::.cpu.data        444090                       # number of WriteReq misses
system.cache.WriteReq_misses::total            444090                       # number of WriteReq misses
system.cache.WriteReq_miss_latency::.cpu.data  26401322000                       # number of WriteReq miss cycles
system.cache.WriteReq_miss_latency::total  26401322000                       # number of WriteReq miss cycles
system.cache.WriteReq_accesses::.cpu.data      3552700                       # number of WriteReq accesses(hits+misses)
system.cache.WriteReq_accesses::total         3552700                       # number of WriteReq accesses(hits+misses)
system.cache.WriteReq_miss_rate::.cpu.data     0.125001                       # miss rate for WriteReq accesses
system.cache.WriteReq_miss_rate::total       0.125001                       # miss rate for WriteReq accesses
system.cache.WriteReq_avg_miss_latency::.cpu.data 59450.386183                       # average WriteReq miss latency
system.cache.WriteReq_avg_miss_latency::total 59450.386183                       # average WriteReq miss latency
system.cache.WriteReq_mshr_misses::.cpu.data       444090                       # number of WriteReq MSHR misses
system.cache.WriteReq_mshr_misses::total       444090                       # number of WriteReq MSHR misses
system.cache.WriteReq_mshr_miss_latency::.cpu.data  25513142000                       # number of WriteReq MSHR miss cycles
system.cache.WriteReq_mshr_miss_latency::total  25513142000                       # number of WriteReq MSHR miss cycles
system.cache.WriteReq_mshr_miss_rate::.cpu.data     0.125001                       # mshr miss rate for WriteReq accesses
system.cache.WriteReq_mshr_miss_rate::total     0.125001                       # mshr miss rate for WriteReq accesses
system.cache.WriteReq_avg_mshr_miss_latency::.cpu.data 57450.386183                       # average WriteReq mshr miss latency
system.cache.WriteReq_avg_mshr_miss_latency::total 57450.386183                       # average WriteReq mshr miss latency
system.cache.power_state.pwrStateResidencyTicks::UNDEFINED 466953912000                       # Cumulative time (in ticks) in various power states
system.cache.tags.tagsinuse              25393.042119                       # Cycle average of tags in use
system.cache.tags.total_refs                  3552700                       # Total number of references to valid blocks.
system.cache.tags.sampled_refs                 444090                       # Sample count of references to valid blocks.
system.cache.tags.avg_refs                   7.999955                       # Average number of references to valid blocks.
system.cache.tags.warmup_cycle            91414016000                       # Cycle when the warmup percentage was hit.
system.cache.tags.occ_blocks::.cpu.data  25393.042119                       # Average occupied blocks per requestor
system.cache.tags.occ_percent::.cpu.data     0.774934                       # Average percentage of cache occupancy
system.cache.tags.occ_percent::total         0.774934                       # Average percentage of cache occupancy
system.cache.tags.occ_task_id_blocks::1024        32768                       # Occupied blocks per task id
system.cache.tags.age_task_id_blocks_1024::0           12                       # Occupied blocks per task id
system.cache.tags.age_task_id_blocks_1024::1          107                       # Occupied blocks per task id
system.cache.tags.age_task_id_blocks_1024::2         1060                       # Occupied blocks per task id
system.cache.tags.age_task_id_blocks_1024::3        10634                       # Occupied blocks per task id
system.cache.tags.age_task_id_blocks_1024::4        20955                       # Occupied blocks per task id
system.cache.tags.occ_task_id_percent::1024            1                       # Percentage of cache occupancy per task id
system.cache.tags.tag_accesses                3996790                       # Number of tag accesses
system.cache.tags.data_accesses               3996790                       # Number of data accesses
system.cache.tags.power_state.pwrStateResidencyTicks::UNDEFINED 466953912000                       # Cumulative time (in ticks) in various power states
system.clk_domain.clock                          1000                       # Clock period in ticks
system.clk_domain.voltage_domain.voltage            1                       # Voltage in Volts
system.cachebus.trans_dist::WriteReq          3552700                       # Transaction distribution
system.cachebus.trans_dist::WriteResp         3552700                       # Transaction distribution
system.cachebus.trans_dist::WritebackDirty       411322                       # Transaction distribution
system.cachebus.pkt_count_system.memobj.cache_side::system.cache.cpu_side      7105400                       # Packet count per connected master and slave (bytes)
system.cachebus.pkt_size_system.memobj.cache_side::system.cache.cpu_side     27711060                       # Cumulative packet size per connected master and slave (bytes)
system.cachebus.snoops                         411322                       # Total snoops (count)
system.cachebus.snoopTraffic                 26324608                       # Total snoop traffic (bytes)
system.cachebus.snoop_fanout::samples         3964022                       # Request fanout histogram
system.cachebus.snoop_fanout::mean                  0                       # Request fanout histogram
system.cachebus.snoop_fanout::stdev                 0                       # Request fanout histogram
system.cachebus.snoop_fanout::underflows            0      0.00%      0.00% # Request fanout histogram
system.cachebus.snoop_fanout::0               3964022    100.00%    100.00% # Request fanout histogram
system.cachebus.snoop_fanout::overflows             0      0.00%    100.00% # Request fanout histogram
system.cachebus.snoop_fanout::min_value             0                       # Request fanout histogram
system.cachebus.snoop_fanout::max_value             0                       # Request fanout histogram
system.cachebus.snoop_fanout::total           3964022                       # Request fanout histogram
system.cachebus.reqLayer0.occupancy        7105400000                       # Layer occupancy (ticks)
system.cachebus.reqLayer0.utilization             1.5                       # Layer utilization (%)
system.cachebus.respLayer0.occupancy       3552700000                       # Layer occupancy (ticks)
system.cachebus.respLayer0.utilization            0.8                       # Layer utilization (%)
system.cachebus.power_state.pwrStateResidencyTicks::UNDEFINED 466953912000                       # Cumulative time (in ticks) in various power states
system.cpu.dtb.walker.power_state.pwrStateResidencyTicks::UNDEFINED 466953912000                       # Cumulative time (in ticks) in various power states
system.cpu.interrupts.clk_domain.clock          16000                       # Clock period in ticks
system.cpu.itb.walker.power_state.pwrStateResidencyTicks::UNDEFINED 466953912000                       # Cumulative time (in ticks) in various power states
system.cpu.power_state.numTransitions               1                       # Number of power state transitions
system.cpu.power_state.pwrStateResidencyTicks::ON 466953912000                       # Cumulative time (in ticks) in various power states

---------- End Simulation Statistics   ----------
