
---------- Begin Simulation Statistics ----------
final_tick                                 3977013000                       # Number of ticks from beginning of simulation (restored from checkpoints and never reset)
host_inst_rate                                 113628                       # Simulator instruction rate (inst/s)
host_mem_usage                               34257456                       # Number of bytes of host memory used
host_op_rate                                   214947                       # Simulator op (including micro ops) rate (op/s)
host_seconds                                     8.80                       # Real time elapsed on the host
host_tick_rate                              451832707                       # Simulator tick rate (ticks/s)
sim_freq                                 1000000000000                       # Frequency of simulated ticks
sim_insts                                     1000116                       # Number of instructions simulated
sim_ops                                       1891944                       # Number of ops (including micro ops) simulated
sim_seconds                                  0.003977                       # Number of seconds simulated
sim_ticks                                  3977013000                       # Number of ticks simulated
system.cpu.Branches                            223455                       # Number of branches fetched
system.cpu.committedInsts                     1000116                       # Number of instructions committed
system.cpu.committedOps                       1891944                       # Number of ops (including micro ops) committed
system.cpu.dtb.rdAccesses                      225137                       # TLB accesses on read requests
system.cpu.dtb.rdMisses                            69                       # TLB misses on read requests
system.cpu.dtb.wrAccesses                      144021                       # TLB accesses on write requests
system.cpu.dtb.wrMisses                            50                       # TLB misses on write requests
system.cpu.idle_fraction                            0                       # Percentage of idle cycles
system.cpu.itb.rdAccesses                           0                       # TLB accesses on read requests
system.cpu.itb.rdMisses                             0                       # TLB misses on read requests
system.cpu.itb.wrAccesses                     1309744                       # TLB accesses on write requests
system.cpu.itb.wrMisses                           156                       # TLB misses on write requests
system.cpu.not_idle_fraction                        1                       # Percentage of non-idle cycles
system.cpu.numCycles                          3977002                       # number of cpu cycles simulated
system.cpu.numWorkItemsCompleted                    0                       # number of work items this cpu completed
system.cpu.numWorkItemsStarted                      0                       # number of work items this cpu started
system.cpu.num_busy_cycles                    3977002                       # Number of busy cycles
system.cpu.num_cc_register_reads              1147006                       # number of times the CC registers were read
system.cpu.num_cc_register_writes              614914                       # number of times the CC registers were written
system.cpu.num_conditional_control_insts       165220                       # number of instructions that are conditional controls
system.cpu.num_fp_alu_accesses                  23266                       # Number of float alu accesses
system.cpu.num_fp_insts                         23266                       # number of float instructions
system.cpu.num_fp_register_reads                37360                       # number of times the floating registers were read
system.cpu.num_fp_register_writes               18378                       # number of times the floating registers were written
system.cpu.num_func_calls                       39472                       # number of times a function call or return occured
system.cpu.num_idle_cycles                          0                       # Number of idle cycles
system.cpu.num_int_alu_accesses               1870217                       # Number of integer alu accesses
system.cpu.num_int_insts                      1870217                       # number of integer instructions
system.cpu.num_int_register_reads             3664632                       # number of times the integer registers were read
system.cpu.num_int_register_writes            1502293                       # number of times the integer registers were written
system.cpu.num_load_insts                      224831                       # Number of load instructions
system.cpu.num_mem_refs                        368785                       # number of memory refs
system.cpu.num_store_insts                     143954                       # Number of store instructions
system.cpu.num_vec_alu_accesses                     0                       # Number of vector alu accesses
system.cpu.num_vec_insts                            0                       # number of vector instructions
system.cpu.num_vec_register_reads                   0                       # number of times the vector registers were read
system.cpu.num_vec_register_writes                  0                       # number of times the vector registers were written
system.cpu.op_class::No_OpClass                  7027      0.37%      0.37% # Class of executed instruction
system.cpu.op_class::IntAlu                   1497877     79.17%     79.54% # Class of executed instruction
system.cpu.op_class::IntMult                      177      0.01%     79.55% # Class of executed instruction
system.cpu.op_class::IntDiv                       210      0.01%     79.56% # Class of executed instruction
system.cpu.op_class::FloatAdd                      77      0.00%     79.57% # Class of executed instruction
system.cpu.op_class::FloatCmp                       0      0.00%     79.57% # Class of executed instruction
system.cpu.op_class::FloatCvt                       0      0.00%     79.57% # Class of executed instruction
system.cpu.op_class::FloatMult                      0      0.00%     79.57% # Class of executed instruction
system.cpu.op_class::FloatMultAcc                   0      0.00%     79.57% # Class of executed instruction
system.cpu.op_class::FloatDiv                       0      0.00%     79.57% # Class of executed instruction
system.cpu.op_class::FloatMisc                      0      0.00%     79.57% # Class of executed instruction
system.cpu.op_class::FloatSqrt                      0      0.00%     79.57% # Class of executed instruction
system.cpu.op_class::SimdAdd                       16      0.00%     79.57% # Class of executed instruction
system.cpu.op_class::SimdAddAcc                     0      0.00%     79.57% # Class of executed instruction
system.cpu.op_class::SimdAlu                     8578      0.45%     80.02% # Class of executed instruction
system.cpu.op_class::SimdCmp                      144      0.01%     80.03% # Class of executed instruction
system.cpu.op_class::SimdCvt                     4448      0.24%     80.26% # Class of executed instruction
system.cpu.op_class::SimdMisc                    4605      0.24%     80.51% # Class of executed instruction
system.cpu.op_class::SimdMult                       0      0.00%     80.51% # Class of executed instruction
system.cpu.op_class::SimdMultAcc                    0      0.00%     80.51% # Class of executed instruction
system.cpu.op_class::SimdShift                      0      0.00%     80.51% # Class of executed instruction
system.cpu.op_class::SimdShiftAcc                   0      0.00%     80.51% # Class of executed instruction
system.cpu.op_class::SimdDiv                        0      0.00%     80.51% # Class of executed instruction
system.cpu.op_class::SimdSqrt                       0      0.00%     80.51% # Class of executed instruction
system.cpu.op_class::SimdFloatAdd                   0      0.00%     80.51% # Class of executed instruction
system.cpu.op_class::SimdFloatAlu                   0      0.00%     80.51% # Class of executed instruction
system.cpu.op_class::SimdFloatCmp                   0      0.00%     80.51% # Class of executed instruction
system.cpu.op_class::SimdFloatCvt                  21      0.00%     80.51% # Class of executed instruction
system.cpu.op_class::SimdFloatDiv                   0      0.00%     80.51% # Class of executed instruction
system.cpu.op_class::SimdFloatMisc                  0      0.00%     80.51% # Class of executed instruction
system.cpu.op_class::SimdFloatMult                  0      0.00%     80.51% # Class of executed instruction
system.cpu.op_class::SimdFloatMultAcc               0      0.00%     80.51% # Class of executed instruction
system.cpu.op_class::SimdFloatSqrt                  0      0.00%     80.51% # Class of executed instruction
system.cpu.op_class::SimdReduceAdd                  0      0.00%     80.51% # Class of executed instruction
system.cpu.op_class::SimdReduceAlu                  0      0.00%     80.51% # Class of executed instruction
system.cpu.op_class::SimdReduceCmp                  0      0.00%     80.51% # Class of executed instruction
system.cpu.op_class::SimdFloatReduceAdd             0      0.00%     80.51% # Class of executed instruction
system.cpu.op_class::SimdFloatReduceCmp             0      0.00%     80.51% # Class of executed instruction
system.cpu.op_class::SimdAes                        0      0.00%     80.51% # Class of executed instruction
system.cpu.op_class::SimdAesMix                     0      0.00%     80.51% # Class of executed instruction
system.cpu.op_class::SimdSha1Hash                   0      0.00%     80.51% # Class of executed instruction
system.cpu.op_class::SimdSha1Hash2                  0      0.00%     80.51% # Class of executed instruction
system.cpu.op_class::SimdSha256Hash                 0      0.00%     80.51% # Class of executed instruction
system.cpu.op_class::SimdSha256Hash2                0      0.00%     80.51% # Class of executed instruction
system.cpu.op_class::SimdShaSigma2                  0      0.00%     80.51% # Class of executed instruction
system.cpu.op_class::SimdShaSigma3                  0      0.00%     80.51% # Class of executed instruction
system.cpu.op_class::SimdPredAlu                    0      0.00%     80.51% # Class of executed instruction
system.cpu.op_class::MemRead                   220484     11.65%     92.16% # Class of executed instruction
system.cpu.op_class::MemWrite                  143237      7.57%     99.73% # Class of executed instruction
system.cpu.op_class::FloatMemRead                4347      0.23%     99.96% # Class of executed instruction
system.cpu.op_class::FloatMemWrite                717      0.04%    100.00% # Class of executed instruction
system.cpu.op_class::IprAccess                      0      0.00%    100.00% # Class of executed instruction
system.cpu.op_class::InstPrefetch                   0      0.00%    100.00% # Class of executed instruction
system.cpu.op_class::total                    1891965                       # Class of executed instruction
system.cpu.workload.numSyscalls                    11                       # Number of system calls
system.dynamic_cache.flushTicks                     0                       # Ticks taken to flush
system.dynamic_cache.numFlushes                     0                       # Number of Flushes Taken
system.cache_small.demand_hits::.cpu.inst         7245                       # number of demand (read+write) hits
system.cache_small.demand_hits::.cpu.data         2541                       # number of demand (read+write) hits
system.cache_small.demand_hits::total            9786                       # number of demand (read+write) hits
system.cache_small.overall_hits::.cpu.inst         7245                       # number of overall hits
system.cache_small.overall_hits::.cpu.data         2541                       # number of overall hits
system.cache_small.overall_hits::total           9786                       # number of overall hits
system.cache_small.demand_misses::.cpu.inst         2081                       # number of demand (read+write) misses
system.cache_small.demand_misses::.cpu.data         1956                       # number of demand (read+write) misses
system.cache_small.demand_misses::total          4037                       # number of demand (read+write) misses
system.cache_small.overall_misses::.cpu.inst         2081                       # number of overall misses
system.cache_small.overall_misses::.cpu.data         1956                       # number of overall misses
system.cache_small.overall_misses::total         4037                       # number of overall misses
system.cache_small.demand_miss_latency::.cpu.inst    125181000                       # number of demand (read+write) miss cycles
system.cache_small.demand_miss_latency::.cpu.data    119832000                       # number of demand (read+write) miss cycles
system.cache_small.demand_miss_latency::total    245013000                       # number of demand (read+write) miss cycles
system.cache_small.overall_miss_latency::.cpu.inst    125181000                       # number of overall miss cycles
system.cache_small.overall_miss_latency::.cpu.data    119832000                       # number of overall miss cycles
system.cache_small.overall_miss_latency::total    245013000                       # number of overall miss cycles
system.cache_small.demand_accesses::.cpu.inst         9326                       # number of demand (read+write) accesses
system.cache_small.demand_accesses::.cpu.data         4497                       # number of demand (read+write) accesses
system.cache_small.demand_accesses::total        13823                       # number of demand (read+write) accesses
system.cache_small.overall_accesses::.cpu.inst         9326                       # number of overall (read+write) accesses
system.cache_small.overall_accesses::.cpu.data         4497                       # number of overall (read+write) accesses
system.cache_small.overall_accesses::total        13823                       # number of overall (read+write) accesses
system.cache_small.demand_miss_rate::.cpu.inst     0.223140                       # miss rate for demand accesses
system.cache_small.demand_miss_rate::.cpu.data     0.434957                       # miss rate for demand accesses
system.cache_small.demand_miss_rate::total     0.292049                       # miss rate for demand accesses
system.cache_small.overall_miss_rate::.cpu.inst     0.223140                       # miss rate for overall accesses
system.cache_small.overall_miss_rate::.cpu.data     0.434957                       # miss rate for overall accesses
system.cache_small.overall_miss_rate::total     0.292049                       # miss rate for overall accesses
system.cache_small.demand_avg_miss_latency::.cpu.inst 60154.252763                       # average overall miss latency
system.cache_small.demand_avg_miss_latency::.cpu.data 61263.803681                       # average overall miss latency
system.cache_small.demand_avg_miss_latency::total 60691.850384                       # average overall miss latency
system.cache_small.overall_avg_miss_latency::.cpu.inst 60154.252763                       # average overall miss latency
system.cache_small.overall_avg_miss_latency::.cpu.data 61263.803681                       # average overall miss latency
system.cache_small.overall_avg_miss_latency::total 60691.850384                       # average overall miss latency
system.cache_small.blocked_cycles::no_mshrs            0                       # number of cycles access was blocked
system.cache_small.blocked_cycles::no_targets            0                       # number of cycles access was blocked
system.cache_small.blocked::no_mshrs                0                       # number of cycles access was blocked
system.cache_small.blocked::no_targets              0                       # number of cycles access was blocked
system.cache_small.avg_blocked_cycles::no_mshrs          nan                       # average number of cycles each access was blocked
system.cache_small.avg_blocked_cycles::no_targets          nan                       # average number of cycles each access was blocked
system.cache_small.writebacks::.writebacks          286                       # number of writebacks
system.cache_small.writebacks::total              286                       # number of writebacks
system.cache_small.demand_mshr_misses::.cpu.inst         2081                       # number of demand (read+write) MSHR misses
system.cache_small.demand_mshr_misses::.cpu.data         1956                       # number of demand (read+write) MSHR misses
system.cache_small.demand_mshr_misses::total         4037                       # number of demand (read+write) MSHR misses
system.cache_small.overall_mshr_misses::.cpu.inst         2081                       # number of overall MSHR misses
system.cache_small.overall_mshr_misses::.cpu.data         1956                       # number of overall MSHR misses
system.cache_small.overall_mshr_misses::total         4037                       # number of overall MSHR misses
system.cache_small.demand_mshr_miss_latency::.cpu.inst    121019000                       # number of demand (read+write) MSHR miss cycles
system.cache_small.demand_mshr_miss_latency::.cpu.data    115920000                       # number of demand (read+write) MSHR miss cycles
system.cache_small.demand_mshr_miss_latency::total    236939000                       # number of demand (read+write) MSHR miss cycles
system.cache_small.overall_mshr_miss_latency::.cpu.inst    121019000                       # number of overall MSHR miss cycles
system.cache_small.overall_mshr_miss_latency::.cpu.data    115920000                       # number of overall MSHR miss cycles
system.cache_small.overall_mshr_miss_latency::total    236939000                       # number of overall MSHR miss cycles
system.cache_small.demand_mshr_miss_rate::.cpu.inst     0.223140                       # mshr miss rate for demand accesses
system.cache_small.demand_mshr_miss_rate::.cpu.data     0.434957                       # mshr miss rate for demand accesses
system.cache_small.demand_mshr_miss_rate::total     0.292049                       # mshr miss rate for demand accesses
system.cache_small.overall_mshr_miss_rate::.cpu.inst     0.223140                       # mshr miss rate for overall accesses
system.cache_small.overall_mshr_miss_rate::.cpu.data     0.434957                       # mshr miss rate for overall accesses
system.cache_small.overall_mshr_miss_rate::total     0.292049                       # mshr miss rate for overall accesses
system.cache_small.demand_avg_mshr_miss_latency::.cpu.inst 58154.252763                       # average overall mshr miss latency
system.cache_small.demand_avg_mshr_miss_latency::.cpu.data 59263.803681                       # average overall mshr miss latency
system.cache_small.demand_avg_mshr_miss_latency::total 58691.850384                       # average overall mshr miss latency
system.cache_small.overall_avg_mshr_miss_latency::.cpu.inst 58154.252763                       # average overall mshr miss latency
system.cache_small.overall_avg_mshr_miss_latency::.cpu.data 59263.803681                       # average overall mshr miss latency
system.cache_small.overall_avg_mshr_miss_latency::total 58691.850384                       # average overall mshr miss latency
system.cache_small.replacements                  1350                       # number of replacements
system.cache_small.ReadReq_hits::.cpu.inst         7245                       # number of ReadReq hits
system.cache_small.ReadReq_hits::.cpu.data         2541                       # number of ReadReq hits
system.cache_small.ReadReq_hits::total           9786                       # number of ReadReq hits
system.cache_small.ReadReq_misses::.cpu.inst         2081                       # number of ReadReq misses
system.cache_small.ReadReq_misses::.cpu.data         1956                       # number of ReadReq misses
system.cache_small.ReadReq_misses::total         4037                       # number of ReadReq misses
system.cache_small.ReadReq_miss_latency::.cpu.inst    125181000                       # number of ReadReq miss cycles
system.cache_small.ReadReq_miss_latency::.cpu.data    119832000                       # number of ReadReq miss cycles
system.cache_small.ReadReq_miss_latency::total    245013000                       # number of ReadReq miss cycles
system.cache_small.ReadReq_accesses::.cpu.inst         9326                       # number of ReadReq accesses(hits+misses)
system.cache_small.ReadReq_accesses::.cpu.data         4497                       # number of ReadReq accesses(hits+misses)
system.cache_small.ReadReq_accesses::total        13823                       # number of ReadReq accesses(hits+misses)
system.cache_small.ReadReq_miss_rate::.cpu.inst     0.223140                       # miss rate for ReadReq accesses
system.cache_small.ReadReq_miss_rate::.cpu.data     0.434957                       # miss rate for ReadReq accesses
system.cache_small.ReadReq_miss_rate::total     0.292049                       # miss rate for ReadReq accesses
system.cache_small.ReadReq_avg_miss_latency::.cpu.inst 60154.252763                       # average ReadReq miss latency
system.cache_small.ReadReq_avg_miss_latency::.cpu.data 61263.803681                       # average ReadReq miss latency
system.cache_small.ReadReq_avg_miss_latency::total 60691.850384                       # average ReadReq miss latency
system.cache_small.ReadReq_mshr_misses::.cpu.inst         2081                       # number of ReadReq MSHR misses
system.cache_small.ReadReq_mshr_misses::.cpu.data         1956                       # number of ReadReq MSHR misses
system.cache_small.ReadReq_mshr_misses::total         4037                       # number of ReadReq MSHR misses
system.cache_small.ReadReq_mshr_miss_latency::.cpu.inst    121019000                       # number of ReadReq MSHR miss cycles
system.cache_small.ReadReq_mshr_miss_latency::.cpu.data    115920000                       # number of ReadReq MSHR miss cycles
system.cache_small.ReadReq_mshr_miss_latency::total    236939000                       # number of ReadReq MSHR miss cycles
system.cache_small.ReadReq_mshr_miss_rate::.cpu.inst     0.223140                       # mshr miss rate for ReadReq accesses
system.cache_small.ReadReq_mshr_miss_rate::.cpu.data     0.434957                       # mshr miss rate for ReadReq accesses
system.cache_small.ReadReq_mshr_miss_rate::total     0.292049                       # mshr miss rate for ReadReq accesses
system.cache_small.ReadReq_avg_mshr_miss_latency::.cpu.inst 58154.252763                       # average ReadReq mshr miss latency
system.cache_small.ReadReq_avg_mshr_miss_latency::.cpu.data 59263.803681                       # average ReadReq mshr miss latency
system.cache_small.ReadReq_avg_mshr_miss_latency::total 58691.850384                       # average ReadReq mshr miss latency
system.cache_small.WritebackDirty_hits::.writebacks         2849                       # number of WritebackDirty hits
system.cache_small.WritebackDirty_hits::total         2849                       # number of WritebackDirty hits
system.cache_small.WritebackDirty_accesses::.writebacks         2849                       # number of WritebackDirty accesses(hits+misses)
system.cache_small.WritebackDirty_accesses::total         2849                       # number of WritebackDirty accesses(hits+misses)
system.cache_small.power_state.pwrStateResidencyTicks::UNDEFINED   3977013000                       # Cumulative time (in ticks) in various power states
system.cache_small.tags.tagsinuse         2232.732217                       # Cycle average of tags in use
system.cache_small.tags.total_refs               3527                       # Total number of references to valid blocks.
system.cache_small.tags.sampled_refs             1350                       # Sample count of references to valid blocks.
system.cache_small.tags.avg_refs             2.612593                       # Average number of references to valid blocks.
system.cache_small.tags.warmup_cycle            76000                       # Cycle when the warmup percentage was hit.
system.cache_small.tags.occ_blocks::.writebacks    27.255799                       # Average occupied blocks per requestor
system.cache_small.tags.occ_blocks::.cpu.inst  1173.354117                       # Average occupied blocks per requestor
system.cache_small.tags.occ_blocks::.cpu.data  1032.122301                       # Average occupied blocks per requestor
system.cache_small.tags.occ_percent::.writebacks     0.003327                       # Average percentage of cache occupancy
system.cache_small.tags.occ_percent::.cpu.inst     0.143232                       # Average percentage of cache occupancy
system.cache_small.tags.occ_percent::.cpu.data     0.125991                       # Average percentage of cache occupancy
system.cache_small.tags.occ_percent::total     0.272550                       # Average percentage of cache occupancy
system.cache_small.tags.occ_task_id_blocks::1024         2870                       # Occupied blocks per task id
system.cache_small.tags.age_task_id_blocks_1024::0            4                       # Occupied blocks per task id
system.cache_small.tags.age_task_id_blocks_1024::1           28                       # Occupied blocks per task id
system.cache_small.tags.age_task_id_blocks_1024::2          342                       # Occupied blocks per task id
system.cache_small.tags.age_task_id_blocks_1024::3         2496                       # Occupied blocks per task id
system.cache_small.tags.occ_task_id_percent::1024     0.350342                       # Percentage of cache occupancy per task id
system.cache_small.tags.tag_accesses            20892                       # Number of tag accesses
system.cache_small.tags.data_accesses           20892                       # Number of data accesses
system.cache_small.tags.power_state.pwrStateResidencyTicks::UNDEFINED   3977013000                       # Cumulative time (in ticks) in various power states
system.icache.demand_hits::.cpu.inst          1295858                       # number of demand (read+write) hits
system.icache.demand_hits::total              1295858                       # number of demand (read+write) hits
system.icache.overall_hits::.cpu.inst         1295858                       # number of overall hits
system.icache.overall_hits::total             1295858                       # number of overall hits
system.icache.demand_misses::.cpu.inst          13886                       # number of demand (read+write) misses
system.icache.demand_misses::total              13886                       # number of demand (read+write) misses
system.icache.overall_misses::.cpu.inst         13886                       # number of overall misses
system.icache.overall_misses::total             13886                       # number of overall misses
system.icache.demand_miss_latency::.cpu.inst    366941000                       # number of demand (read+write) miss cycles
system.icache.demand_miss_latency::total    366941000                       # number of demand (read+write) miss cycles
system.icache.overall_miss_latency::.cpu.inst    366941000                       # number of overall miss cycles
system.icache.overall_miss_latency::total    366941000                       # number of overall miss cycles
system.icache.demand_accesses::.cpu.inst      1309744                       # number of demand (read+write) accesses
system.icache.demand_accesses::total          1309744                       # number of demand (read+write) accesses
system.icache.overall_accesses::.cpu.inst      1309744                       # number of overall (read+write) accesses
system.icache.overall_accesses::total         1309744                       # number of overall (read+write) accesses
system.icache.demand_miss_rate::.cpu.inst     0.010602                       # miss rate for demand accesses
system.icache.demand_miss_rate::total        0.010602                       # miss rate for demand accesses
system.icache.overall_miss_rate::.cpu.inst     0.010602                       # miss rate for overall accesses
system.icache.overall_miss_rate::total       0.010602                       # miss rate for overall accesses
system.icache.demand_avg_miss_latency::.cpu.inst 26425.248452                       # average overall miss latency
system.icache.demand_avg_miss_latency::total 26425.248452                       # average overall miss latency
system.icache.overall_avg_miss_latency::.cpu.inst 26425.248452                       # average overall miss latency
system.icache.overall_avg_miss_latency::total 26425.248452                       # average overall miss latency
system.icache.blocked_cycles::no_mshrs              0                       # number of cycles access was blocked
system.icache.blocked_cycles::no_targets            0                       # number of cycles access was blocked
system.icache.blocked::no_mshrs                     0                       # number of cycles access was blocked
system.icache.blocked::no_targets                   0                       # number of cycles access was blocked
system.icache.avg_blocked_cycles::no_mshrs          nan                       # average number of cycles each access was blocked
system.icache.avg_blocked_cycles::no_targets          nan                       # average number of cycles each access was blocked
system.icache.demand_mshr_misses::.cpu.inst        13886                       # number of demand (read+write) MSHR misses
system.icache.demand_mshr_misses::total         13886                       # number of demand (read+write) MSHR misses
system.icache.overall_mshr_misses::.cpu.inst        13886                       # number of overall MSHR misses
system.icache.overall_mshr_misses::total        13886                       # number of overall MSHR misses
system.icache.demand_mshr_miss_latency::.cpu.inst    339169000                       # number of demand (read+write) MSHR miss cycles
system.icache.demand_mshr_miss_latency::total    339169000                       # number of demand (read+write) MSHR miss cycles
system.icache.overall_mshr_miss_latency::.cpu.inst    339169000                       # number of overall MSHR miss cycles
system.icache.overall_mshr_miss_latency::total    339169000                       # number of overall MSHR miss cycles
system.icache.demand_mshr_miss_rate::.cpu.inst     0.010602                       # mshr miss rate for demand accesses
system.icache.demand_mshr_miss_rate::total     0.010602                       # mshr miss rate for demand accesses
system.icache.overall_mshr_miss_rate::.cpu.inst     0.010602                       # mshr miss rate for overall accesses
system.icache.overall_mshr_miss_rate::total     0.010602                       # mshr miss rate for overall accesses
system.icache.demand_avg_mshr_miss_latency::.cpu.inst 24425.248452                       # average overall mshr miss latency
system.icache.demand_avg_mshr_miss_latency::total 24425.248452                       # average overall mshr miss latency
system.icache.overall_avg_mshr_miss_latency::.cpu.inst 24425.248452                       # average overall mshr miss latency
system.icache.overall_avg_mshr_miss_latency::total 24425.248452                       # average overall mshr miss latency
system.icache.replacements                      13630                       # number of replacements
system.icache.ReadReq_hits::.cpu.inst         1295858                       # number of ReadReq hits
system.icache.ReadReq_hits::total             1295858                       # number of ReadReq hits
system.icache.ReadReq_misses::.cpu.inst         13886                       # number of ReadReq misses
system.icache.ReadReq_misses::total             13886                       # number of ReadReq misses
system.icache.ReadReq_miss_latency::.cpu.inst    366941000                       # number of ReadReq miss cycles
system.icache.ReadReq_miss_latency::total    366941000                       # number of ReadReq miss cycles
system.icache.ReadReq_accesses::.cpu.inst      1309744                       # number of ReadReq accesses(hits+misses)
system.icache.ReadReq_accesses::total         1309744                       # number of ReadReq accesses(hits+misses)
system.icache.ReadReq_miss_rate::.cpu.inst     0.010602                       # miss rate for ReadReq accesses
system.icache.ReadReq_miss_rate::total       0.010602                       # miss rate for ReadReq accesses
system.icache.ReadReq_avg_miss_latency::.cpu.inst 26425.248452                       # average ReadReq miss latency
system.icache.ReadReq_avg_miss_latency::total 26425.248452                       # average ReadReq miss latency
system.icache.ReadReq_mshr_misses::.cpu.inst        13886                       # number of ReadReq MSHR misses
system.icache.ReadReq_mshr_misses::total        13886                       # number of ReadReq MSHR misses
system.icache.ReadReq_mshr_miss_latency::.cpu.inst    339169000                       # number of ReadReq MSHR miss cycles
system.icache.ReadReq_mshr_miss_latency::total    339169000                       # number of ReadReq MSHR miss cycles
system.icache.ReadReq_mshr_miss_rate::.cpu.inst     0.010602                       # mshr miss rate for ReadReq accesses
system.icache.ReadReq_mshr_miss_rate::total     0.010602                       # mshr miss rate for ReadReq accesses
system.icache.ReadReq_avg_mshr_miss_latency::.cpu.inst 24425.248452                       # average ReadReq mshr miss latency
system.icache.ReadReq_avg_mshr_miss_latency::total 24425.248452                       # average ReadReq mshr miss latency
system.icache.power_state.pwrStateResidencyTicks::UNDEFINED   3977013000                       # Cumulative time (in ticks) in various power states
system.icache.tags.tagsinuse               251.649915                       # Cycle average of tags in use
system.icache.tags.total_refs                 1220337                       # Total number of references to valid blocks.
system.icache.tags.sampled_refs                 13630                       # Sample count of references to valid blocks.
system.icache.tags.avg_refs                 89.533162                       # Average number of references to valid blocks.
system.icache.tags.warmup_cycle                 82000                       # Cycle when the warmup percentage was hit.
system.icache.tags.occ_blocks::.cpu.inst   251.649915                       # Average occupied blocks per requestor
system.icache.tags.occ_percent::.cpu.inst     0.983007                       # Average percentage of cache occupancy
system.icache.tags.occ_percent::total        0.983007                       # Average percentage of cache occupancy
system.icache.tags.occ_task_id_blocks::1024          256                       # Occupied blocks per task id
system.icache.tags.age_task_id_blocks_1024::0           13                       # Occupied blocks per task id
system.icache.tags.age_task_id_blocks_1024::1           34                       # Occupied blocks per task id
system.icache.tags.age_task_id_blocks_1024::2          167                       # Occupied blocks per task id
system.icache.tags.age_task_id_blocks_1024::3           42                       # Occupied blocks per task id
system.icache.tags.occ_task_id_percent::1024            1                       # Percentage of cache occupancy per task id
system.icache.tags.tag_accesses               1323630                       # Number of tag accesses
system.icache.tags.data_accesses              1323630                       # Number of data accesses
system.icache.tags.power_state.pwrStateResidencyTicks::UNDEFINED   3977013000                       # Cumulative time (in ticks) in various power states
system.membus.trans_dist::ReadReq                4037                       # Transaction distribution
system.membus.trans_dist::ReadResp               4037                       # Transaction distribution
system.membus.trans_dist::WritebackDirty          286                       # Transaction distribution
system.membus.pkt_count_system.cache_small.mem_side::system.mem_ctrl.port         8360                       # Packet count per connected master and slave (bytes)
system.membus.pkt_count_system.cache_small.mem_side::total         8360                       # Packet count per connected master and slave (bytes)
system.membus.pkt_count::total                   8360                       # Packet count per connected master and slave (bytes)
system.membus.pkt_size_system.cache_small.mem_side::system.mem_ctrl.port       276672                       # Cumulative packet size per connected master and slave (bytes)
system.membus.pkt_size_system.cache_small.mem_side::total       276672                       # Cumulative packet size per connected master and slave (bytes)
system.membus.pkt_size::total                  276672                       # Cumulative packet size per connected master and slave (bytes)
system.membus.reqLayer2.occupancy             5467000                       # Layer occupancy (ticks)
system.membus.reqLayer2.utilization               0.1                       # Layer utilization (%)
system.membus.respLayer1.occupancy           21579250                       # Layer occupancy (ticks)
system.membus.respLayer1.utilization              0.5                       # Layer utilization (%)
system.membus.power_state.pwrStateResidencyTicks::UNDEFINED   3977013000                       # Cumulative time (in ticks) in various power states
system.mem_ctrl.bytes_read::.cpu.inst          133184                       # Number of bytes read from this memory
system.mem_ctrl.bytes_read::.cpu.data          125184                       # Number of bytes read from this memory
system.mem_ctrl.bytes_read::total              258368                       # Number of bytes read from this memory
system.mem_ctrl.bytes_inst_read::.cpu.inst       133184                       # Number of instructions bytes read from this memory
system.mem_ctrl.bytes_inst_read::total         133184                       # Number of instructions bytes read from this memory
system.mem_ctrl.bytes_written::.writebacks        18304                       # Number of bytes written to this memory
system.mem_ctrl.bytes_written::total            18304                       # Number of bytes written to this memory
system.mem_ctrl.num_reads::.cpu.inst             2081                       # Number of read requests responded to by this memory
system.mem_ctrl.num_reads::.cpu.data             1956                       # Number of read requests responded to by this memory
system.mem_ctrl.num_reads::total                 4037                       # Number of read requests responded to by this memory
system.mem_ctrl.num_writes::.writebacks           286                       # Number of write requests responded to by this memory
system.mem_ctrl.num_writes::total                 286                       # Number of write requests responded to by this memory
system.mem_ctrl.bw_read::.cpu.inst           33488450                       # Total read bandwidth from this memory (bytes/s)
system.mem_ctrl.bw_read::.cpu.data           31476890                       # Total read bandwidth from this memory (bytes/s)
system.mem_ctrl.bw_read::total               64965340                       # Total read bandwidth from this memory (bytes/s)
system.mem_ctrl.bw_inst_read::.cpu.inst      33488450                       # Instruction read bandwidth from this memory (bytes/s)
system.mem_ctrl.bw_inst_read::total          33488450                       # Instruction read bandwidth from this memory (bytes/s)
system.mem_ctrl.bw_write::.writebacks         4602449                       # Write bandwidth from this memory (bytes/s)
system.mem_ctrl.bw_write::total               4602449                       # Write bandwidth from this memory (bytes/s)
system.mem_ctrl.bw_total::.writebacks         4602449                       # Total bandwidth to/from this memory (bytes/s)
system.mem_ctrl.bw_total::.cpu.inst          33488450                       # Total bandwidth to/from this memory (bytes/s)
system.mem_ctrl.bw_total::.cpu.data          31476890                       # Total bandwidth to/from this memory (bytes/s)
system.mem_ctrl.bw_total::total              69567789                       # Total bandwidth to/from this memory (bytes/s)
system.mem_ctrl.avgPriority_.writebacks::samples       205.00                       # Average QoS priority value for accepted requests
system.mem_ctrl.avgPriority_.cpu.inst::samples      2081.00                       # Average QoS priority value for accepted requests
system.mem_ctrl.avgPriority_.cpu.data::samples      1899.00                       # Average QoS priority value for accepted requests
system.mem_ctrl.priorityMinLatency       0.000000018750                       # per QoS priority minimum request to response latency (s)
system.mem_ctrl.priorityMaxLatency       0.003066432500                       # per QoS priority maximum request to response latency (s)
system.mem_ctrl.numReadWriteTurnArounds            11                       # Number of turnarounds from READ to WRITE
system.mem_ctrl.numWriteReadTurnArounds            11                       # Number of turnarounds from WRITE to READ
system.mem_ctrl.numStayReadState                 9257                       # Number of times bus staying in READ state
system.mem_ctrl.numStayWriteState                 174                       # Number of times bus staying in WRITE state
system.mem_ctrl.readReqs                         4037                       # Number of read requests accepted
system.mem_ctrl.writeReqs                         286                       # Number of write requests accepted
system.mem_ctrl.readBursts                       4037                       # Number of DRAM read bursts, including those serviced by the write queue
system.mem_ctrl.writeBursts                       286                       # Number of DRAM write bursts, including those merged in the write queue
system.mem_ctrl.servicedByWrQ                      57                       # Number of DRAM read bursts serviced by the write queue
system.mem_ctrl.mergedWrBursts                     81                       # Number of DRAM write bursts merged with an existing one
system.mem_ctrl.neitherReadNorWriteReqs             0                       # Number of requests that are neither read nor write
system.mem_ctrl.perBankRdBursts::0                496                       # Per bank write bursts
system.mem_ctrl.perBankRdBursts::1                307                       # Per bank write bursts
system.mem_ctrl.perBankRdBursts::2                352                       # Per bank write bursts
system.mem_ctrl.perBankRdBursts::3                218                       # Per bank write bursts
system.mem_ctrl.perBankRdBursts::4                179                       # Per bank write bursts
system.mem_ctrl.perBankRdBursts::5                 84                       # Per bank write bursts
system.mem_ctrl.perBankRdBursts::6                278                       # Per bank write bursts
system.mem_ctrl.perBankRdBursts::7                141                       # Per bank write bursts
system.mem_ctrl.perBankRdBursts::8                151                       # Per bank write bursts
system.mem_ctrl.perBankRdBursts::9                239                       # Per bank write bursts
system.mem_ctrl.perBankRdBursts::10               143                       # Per bank write bursts
system.mem_ctrl.perBankRdBursts::11               200                       # Per bank write bursts
system.mem_ctrl.perBankRdBursts::12               194                       # Per bank write bursts
system.mem_ctrl.perBankRdBursts::13               224                       # Per bank write bursts
system.mem_ctrl.perBankRdBursts::14               340                       # Per bank write bursts
system.mem_ctrl.perBankRdBursts::15               434                       # Per bank write bursts
system.mem_ctrl.perBankWrBursts::0                  4                       # Per bank write bursts
system.mem_ctrl.perBankWrBursts::1                  1                       # Per bank write bursts
system.mem_ctrl.perBankWrBursts::2                 48                       # Per bank write bursts
system.mem_ctrl.perBankWrBursts::3                 43                       # Per bank write bursts
system.mem_ctrl.perBankWrBursts::4                 20                       # Per bank write bursts
system.mem_ctrl.perBankWrBursts::5                  0                       # Per bank write bursts
system.mem_ctrl.perBankWrBursts::6                 46                       # Per bank write bursts
system.mem_ctrl.perBankWrBursts::7                  4                       # Per bank write bursts
system.mem_ctrl.perBankWrBursts::8                  6                       # Per bank write bursts
system.mem_ctrl.perBankWrBursts::9                  3                       # Per bank write bursts
system.mem_ctrl.perBankWrBursts::10                 4                       # Per bank write bursts
system.mem_ctrl.perBankWrBursts::11                 1                       # Per bank write bursts
system.mem_ctrl.perBankWrBursts::12                 1                       # Per bank write bursts
system.mem_ctrl.perBankWrBursts::13                 1                       # Per bank write bursts
system.mem_ctrl.perBankWrBursts::14                 3                       # Per bank write bursts
system.mem_ctrl.perBankWrBursts::15                 0                       # Per bank write bursts
system.mem_ctrl.avgRdQLen                        1.00                       # Average read queue length when enqueuing
system.mem_ctrl.avgWrQLen                       19.52                       # Average write queue length when enqueuing
system.mem_ctrl.totQLat                      36339500                       # Total ticks spent queuing
system.mem_ctrl.totBusLat                    19900000                       # Total ticks spent in databus transfers
system.mem_ctrl.totMemAccLat                110964500                       # Total ticks spent from burst creation until serviced by the DRAM
system.mem_ctrl.avgQLat                       9130.53                       # Average queueing delay per DRAM burst
system.mem_ctrl.avgBusLat                     5000.00                       # Average bus latency per DRAM burst
system.mem_ctrl.avgMemAccLat                 27880.53                       # Average memory access latency per DRAM burst
system.mem_ctrl.numRdRetry                          0                       # Number of times read queue was full causing retry
system.mem_ctrl.numWrRetry                          0                       # Number of times write queue was full causing retry
system.mem_ctrl.readRowHits                      2554                       # Number of row buffer hits during reads
system.mem_ctrl.writeRowHits                      151                       # Number of row buffer hits during writes
system.mem_ctrl.readRowHitRate                  64.17                       # Row buffer hit rate for reads
system.mem_ctrl.writeRowHitRate                 73.66                       # Row buffer hit rate for writes
system.mem_ctrl.readPktSize::0                      0                       # Read request sizes (log2)
system.mem_ctrl.readPktSize::1                      0                       # Read request sizes (log2)
system.mem_ctrl.readPktSize::2                      0                       # Read request sizes (log2)
system.mem_ctrl.readPktSize::3                      0                       # Read request sizes (log2)
system.mem_ctrl.readPktSize::4                      0                       # Read request sizes (log2)
system.mem_ctrl.readPktSize::5                      0                       # Read request sizes (log2)
system.mem_ctrl.readPktSize::6                   4037                       # Read request sizes (log2)
system.mem_ctrl.writePktSize::0                     0                       # Write request sizes (log2)
system.mem_ctrl.writePktSize::1                     0                       # Write request sizes (log2)
system.mem_ctrl.writePktSize::2                     0                       # Write request sizes (log2)
system.mem_ctrl.writePktSize::3                     0                       # Write request sizes (log2)
system.mem_ctrl.writePktSize::4                     0                       # Write request sizes (log2)
system.mem_ctrl.writePktSize::5                     0                       # Write request sizes (log2)
system.mem_ctrl.writePktSize::6                   286                       # Write request sizes (log2)
system.mem_ctrl.rdQLenPdf::0                     3974                       # What read queue length does an incoming req see
system.mem_ctrl.rdQLenPdf::1                        6                       # What read queue length does an incoming req see
system.mem_ctrl.rdQLenPdf::2                        0                       # What read queue length does an incoming req see
system.mem_ctrl.rdQLenPdf::3                        0                       # What read queue length does an incoming req see
system.mem_ctrl.rdQLenPdf::4                        0                       # What read queue length does an incoming req see
system.mem_ctrl.rdQLenPdf::5                        0                       # What read queue length does an incoming req see
system.mem_ctrl.rdQLenPdf::6                        0                       # What read queue length does an incoming req see
system.mem_ctrl.rdQLenPdf::7                        0                       # What read queue length does an incoming req see
system.mem_ctrl.rdQLenPdf::8                        0                       # What read queue length does an incoming req see
system.mem_ctrl.rdQLenPdf::9                        0                       # What read queue length does an incoming req see
system.mem_ctrl.rdQLenPdf::10                       0                       # What read queue length does an incoming req see
system.mem_ctrl.rdQLenPdf::11                       0                       # What read queue length does an incoming req see
system.mem_ctrl.rdQLenPdf::12                       0                       # What read queue length does an incoming req see
system.mem_ctrl.rdQLenPdf::13                       0                       # What read queue length does an incoming req see
system.mem_ctrl.rdQLenPdf::14                       0                       # What read queue length does an incoming req see
system.mem_ctrl.rdQLenPdf::15                       0                       # What read queue length does an incoming req see
system.mem_ctrl.rdQLenPdf::16                       0                       # What read queue length does an incoming req see
system.mem_ctrl.rdQLenPdf::17                       0                       # What read queue length does an incoming req see
system.mem_ctrl.rdQLenPdf::18                       0                       # What read queue length does an incoming req see
system.mem_ctrl.rdQLenPdf::19                       0                       # What read queue length does an incoming req see
system.mem_ctrl.rdQLenPdf::20                       0                       # What read queue length does an incoming req see
system.mem_ctrl.rdQLenPdf::21                       0                       # What read queue length does an incoming req see
system.mem_ctrl.rdQLenPdf::22                       0                       # What read queue length does an incoming req see
system.mem_ctrl.rdQLenPdf::23                       0                       # What read queue length does an incoming req see
system.mem_ctrl.rdQLenPdf::24                       0                       # What read queue length does an incoming req see
system.mem_ctrl.rdQLenPdf::25                       0                       # What read queue length does an incoming req see
system.mem_ctrl.rdQLenPdf::26                       0                       # What read queue length does an incoming req see
system.mem_ctrl.rdQLenPdf::27                       0                       # What read queue length does an incoming req see
system.mem_ctrl.rdQLenPdf::28                       0                       # What read queue length does an incoming req see
system.mem_ctrl.rdQLenPdf::29                       0                       # What read queue length does an incoming req see
system.mem_ctrl.rdQLenPdf::30                       0                       # What read queue length does an incoming req see
system.mem_ctrl.rdQLenPdf::31                       0                       # What read queue length does an incoming req see
system.mem_ctrl.wrQLenPdf::0                        1                       # What write queue length does an incoming req see
system.mem_ctrl.wrQLenPdf::1                        1                       # What write queue length does an incoming req see
system.mem_ctrl.wrQLenPdf::2                        1                       # What write queue length does an incoming req see
system.mem_ctrl.wrQLenPdf::3                        1                       # What write queue length does an incoming req see
system.mem_ctrl.wrQLenPdf::4                        1                       # What write queue length does an incoming req see
system.mem_ctrl.wrQLenPdf::5                        1                       # What write queue length does an incoming req see
system.mem_ctrl.wrQLenPdf::6                        1                       # What write queue length does an incoming req see
system.mem_ctrl.wrQLenPdf::7                        1                       # What write queue length does an incoming req see
system.mem_ctrl.wrQLenPdf::8                        1                       # What write queue length does an incoming req see
system.mem_ctrl.wrQLenPdf::9                        1                       # What write queue length does an incoming req see
system.mem_ctrl.wrQLenPdf::10                       1                       # What write queue length does an incoming req see
system.mem_ctrl.wrQLenPdf::11                       1                       # What write queue length does an incoming req see
system.mem_ctrl.wrQLenPdf::12                       1                       # What write queue length does an incoming req see
system.mem_ctrl.wrQLenPdf::13                       1                       # What write queue length does an incoming req see
system.mem_ctrl.wrQLenPdf::14                       1                       # What write queue length does an incoming req see
system.mem_ctrl.wrQLenPdf::15                       5                       # What write queue length does an incoming req see
system.mem_ctrl.wrQLenPdf::16                       6                       # What write queue length does an incoming req see
system.mem_ctrl.wrQLenPdf::17                      12                       # What write queue length does an incoming req see
system.mem_ctrl.wrQLenPdf::18                      12                       # What write queue length does an incoming req see
system.mem_ctrl.wrQLenPdf::19                      12                       # What write queue length does an incoming req see
system.mem_ctrl.wrQLenPdf::20                      11                       # What write queue length does an incoming req see
system.mem_ctrl.wrQLenPdf::21                      11                       # What write queue length does an incoming req see
system.mem_ctrl.wrQLenPdf::22                      11                       # What write queue length does an incoming req see
system.mem_ctrl.wrQLenPdf::23                      11                       # What write queue length does an incoming req see
system.mem_ctrl.wrQLenPdf::24                      11                       # What write queue length does an incoming req see
system.mem_ctrl.wrQLenPdf::25                      11                       # What write queue length does an incoming req see
system.mem_ctrl.wrQLenPdf::26                      11                       # What write queue length does an incoming req see
system.mem_ctrl.wrQLenPdf::27                      11                       # What write queue length does an incoming req see
system.mem_ctrl.wrQLenPdf::28                      11                       # What write queue length does an incoming req see
system.mem_ctrl.wrQLenPdf::29                      11                       # What write queue length does an incoming req see
system.mem_ctrl.wrQLenPdf::30                      11                       # What write queue length does an incoming req see
system.mem_ctrl.wrQLenPdf::31                      11                       # What write queue length does an incoming req see
system.mem_ctrl.wrQLenPdf::32                      11                       # What write queue length does an incoming req see
system.mem_ctrl.wrQLenPdf::33                       0                       # What write queue length does an incoming req see
system.mem_ctrl.wrQLenPdf::34                       0                       # What write queue length does an incoming req see
system.mem_ctrl.wrQLenPdf::35                       0                       # What write queue length does an incoming req see
system.mem_ctrl.wrQLenPdf::36                       0                       # What write queue length does an incoming req see
system.mem_ctrl.wrQLenPdf::37                       0                       # What write queue length does an incoming req see
system.mem_ctrl.wrQLenPdf::38                       0                       # What write queue length does an incoming req see
system.mem_ctrl.wrQLenPdf::39                       0                       # What write queue length does an incoming req see
system.mem_ctrl.wrQLenPdf::40                       0                       # What write queue length does an incoming req see
system.mem_ctrl.wrQLenPdf::41                       0                       # What write queue length does an incoming req see
system.mem_ctrl.wrQLenPdf::42                       0                       # What write queue length does an incoming req see
system.mem_ctrl.wrQLenPdf::43                       0                       # What write queue length does an incoming req see
system.mem_ctrl.wrQLenPdf::44                       0                       # What write queue length does an incoming req see
system.mem_ctrl.wrQLenPdf::45                       0                       # What write queue length does an incoming req see
system.mem_ctrl.wrQLenPdf::46                       0                       # What write queue length does an incoming req see
system.mem_ctrl.wrQLenPdf::47                       0                       # What write queue length does an incoming req see
system.mem_ctrl.wrQLenPdf::48                       0                       # What write queue length does an incoming req see
system.mem_ctrl.wrQLenPdf::49                       0                       # What write queue length does an incoming req see
system.mem_ctrl.wrQLenPdf::50                       0                       # What write queue length does an incoming req see
system.mem_ctrl.wrQLenPdf::51                       0                       # What write queue length does an incoming req see
system.mem_ctrl.wrQLenPdf::52                       0                       # What write queue length does an incoming req see
system.mem_ctrl.wrQLenPdf::53                       0                       # What write queue length does an incoming req see
system.mem_ctrl.wrQLenPdf::54                       0                       # What write queue length does an incoming req see
system.mem_ctrl.wrQLenPdf::55                       0                       # What write queue length does an incoming req see
system.mem_ctrl.wrQLenPdf::56                       0                       # What write queue length does an incoming req see
system.mem_ctrl.wrQLenPdf::57                       0                       # What write queue length does an incoming req see
system.mem_ctrl.wrQLenPdf::58                       0                       # What write queue length does an incoming req see
system.mem_ctrl.wrQLenPdf::59                       0                       # What write queue length does an incoming req see
system.mem_ctrl.wrQLenPdf::60                       0                       # What write queue length does an incoming req see
system.mem_ctrl.wrQLenPdf::61                       0                       # What write queue length does an incoming req see
system.mem_ctrl.wrQLenPdf::62                       0                       # What write queue length does an incoming req see
system.mem_ctrl.wrQLenPdf::63                       0                       # What write queue length does an incoming req see
system.mem_ctrl.bytesPerActivate::samples         1459                       # Bytes accessed per row activation
system.mem_ctrl.bytesPerActivate::mean     182.612748                       # Bytes accessed per row activation
system.mem_ctrl.bytesPerActivate::gmean    134.231593                       # Bytes accessed per row activation
system.mem_ctrl.bytesPerActivate::stdev    172.928318                       # Bytes accessed per row activation
system.mem_ctrl.bytesPerActivate::0-127           597     40.92%     40.92% # Bytes accessed per row activation
system.mem_ctrl.bytesPerActivate::128-255          465     31.87%     72.79% # Bytes accessed per row activation
system.mem_ctrl.bytesPerActivate::256-383          251     17.20%     89.99% # Bytes accessed per row activation
system.mem_ctrl.bytesPerActivate::384-511           60      4.11%     94.11% # Bytes accessed per row activation
system.mem_ctrl.bytesPerActivate::512-639           31      2.12%     96.23% # Bytes accessed per row activation
system.mem_ctrl.bytesPerActivate::640-767           20      1.37%     97.60% # Bytes accessed per row activation
system.mem_ctrl.bytesPerActivate::768-895            9      0.62%     98.22% # Bytes accessed per row activation
system.mem_ctrl.bytesPerActivate::896-1023           11      0.75%     98.97% # Bytes accessed per row activation
system.mem_ctrl.bytesPerActivate::1024-1151           15      1.03%    100.00% # Bytes accessed per row activation
system.mem_ctrl.bytesPerActivate::total          1459                       # Bytes accessed per row activation
system.mem_ctrl.rdPerTurnAround::samples           11                       # Reads before turning the bus around for writes
system.mem_ctrl.rdPerTurnAround::mean      359.363636                       # Reads before turning the bus around for writes
system.mem_ctrl.rdPerTurnAround::gmean     140.126087                       # Reads before turning the bus around for writes
system.mem_ctrl.rdPerTurnAround::stdev     712.810111                       # Reads before turning the bus around for writes
system.mem_ctrl.rdPerTurnAround::0-127              6     54.55%     54.55% # Reads before turning the bus around for writes
system.mem_ctrl.rdPerTurnAround::128-255            2     18.18%     72.73% # Reads before turning the bus around for writes
system.mem_ctrl.rdPerTurnAround::256-383            1      9.09%     81.82% # Reads before turning the bus around for writes
system.mem_ctrl.rdPerTurnAround::384-511            1      9.09%     90.91% # Reads before turning the bus around for writes
system.mem_ctrl.rdPerTurnAround::2432-2559            1      9.09%    100.00% # Reads before turning the bus around for writes
system.mem_ctrl.rdPerTurnAround::total             11                       # Reads before turning the bus around for writes
system.mem_ctrl.wrPerTurnAround::samples           11                       # Writes before turning the bus around for reads
system.mem_ctrl.wrPerTurnAround::mean       16.818182                       # Writes before turning the bus around for reads
system.mem_ctrl.wrPerTurnAround::gmean      16.792465                       # Writes before turning the bus around for reads
system.mem_ctrl.wrPerTurnAround::stdev       0.981650                       # Writes before turning the bus around for reads
system.mem_ctrl.wrPerTurnAround::16                 6     54.55%     54.55% # Writes before turning the bus around for reads
system.mem_ctrl.wrPerTurnAround::17                 1      9.09%     63.64% # Writes before turning the bus around for reads
system.mem_ctrl.wrPerTurnAround::18                 4     36.36%    100.00% # Writes before turning the bus around for reads
system.mem_ctrl.wrPerTurnAround::total             11                       # Writes before turning the bus around for reads
system.mem_ctrl.bytesReadDRAM                  254720                       # Total number of bytes read from DRAM
system.mem_ctrl.bytesReadWrQ                     3648                       # Total number of bytes read from write queue
system.mem_ctrl.bytesWritten                    11840                       # Total number of bytes written to DRAM
system.mem_ctrl.bytesReadSys                   258368                       # Total read bytes from the system interface side
system.mem_ctrl.bytesWrittenSys                 18304                       # Total written bytes from the system interface side
system.mem_ctrl.avgRdBW                         64.05                       # Average DRAM read bandwidth in MiByte/s
system.mem_ctrl.avgWrBW                          2.98                       # Average achieved write bandwidth in MiByte/s
system.mem_ctrl.avgRdBWSys                      64.97                       # Average system read bandwidth in MiByte/s
system.mem_ctrl.avgWrBWSys                       4.60                       # Average system write bandwidth in MiByte/s
system.mem_ctrl.peakBW                       12800.00                       # Theoretical peak bandwidth in MiByte/s
system.mem_ctrl.busUtil                          0.52                       # Data bus utilization in percentage
system.mem_ctrl.busUtilRead                      0.50                       # Data bus utilization in percentage for reads
system.mem_ctrl.busUtilWrite                     0.02                       # Data bus utilization in percentage for writes
system.mem_ctrl.totGap                     3972899000                       # Total gap between requests
system.mem_ctrl.avgGap                      919014.34                       # Average gap between requests
system.mem_ctrl.masterReadBytes::.cpu.inst       133184                       # Per-master bytes read from memory
system.mem_ctrl.masterReadBytes::.cpu.data       121536                       # Per-master bytes read from memory
system.mem_ctrl.masterWriteBytes::.writebacks        11840                       # Per-master bytes write to memory
system.mem_ctrl.masterReadRate::.cpu.inst 33488449.748592726886                       # Per-master bytes read from memory rate (Bytes/sec)
system.mem_ctrl.masterReadRate::.cpu.data 30559618.487543292344                       # Per-master bytes read from memory rate (Bytes/sec)
system.mem_ctrl.masterWriteRate::.writebacks 2977108.699418382719                       # Per-master bytes write to memory rate (Bytes/sec)
system.mem_ctrl.masterReadAccesses::.cpu.inst         2081                       # Per-master read serviced memory accesses
system.mem_ctrl.masterReadAccesses::.cpu.data         1956                       # Per-master read serviced memory accesses
system.mem_ctrl.masterWriteAccesses::.writebacks          286                       # Per-master write serviced memory accesses
system.mem_ctrl.masterReadTotalLat::.cpu.inst     55797250                       # Per-master read total memory access latency
system.mem_ctrl.masterReadTotalLat::.cpu.data     55167250                       # Per-master read total memory access latency
system.mem_ctrl.masterWriteTotalLat::.writebacks  68156271000                       # Per-master write total memory access latency
system.mem_ctrl.masterReadAvgLat::.cpu.inst     26812.71                       # Per-master read average memory access latency
system.mem_ctrl.masterReadAvgLat::.cpu.data     28204.12                       # Per-master read average memory access latency
system.mem_ctrl.masterWriteAvgLat::.writebacks 238308639.86                       # Per-master write average memory access latency
system.mem_ctrl.pageHitRate                     64.64                       # Row buffer hit rate, read and write combined
system.mem_ctrl.rank1.actEnergy               5126520                       # Energy for activate commands per rank (pJ)
system.mem_ctrl.rank1.preEnergy               2724810                       # Energy for precharge commands per rank (pJ)
system.mem_ctrl.rank1.readEnergy             13744500                       # Energy for read commands per rank (pJ)
system.mem_ctrl.rank1.writeEnergy               99180                       # Energy for write commands per rank (pJ)
system.mem_ctrl.rank1.refreshEnergy      313466400.000000                       # Energy for refresh commands per rank (pJ)
system.mem_ctrl.rank1.actBackEnergy        1072707510                       # Energy for active background per rank (pJ)
system.mem_ctrl.rank1.preBackEnergy         623840640                       # Energy for precharge background per rank (pJ)
system.mem_ctrl.rank1.actPowerDownEnergy            0                       # Energy for active power-down per rank (pJ)
system.mem_ctrl.rank1.prePowerDownEnergy            0                       # Energy for precharge power-down per rank (pJ)
system.mem_ctrl.rank1.selfRefreshEnergy             0                       # Energy for self refresh per rank (pJ)
system.mem_ctrl.rank1.totalEnergy          2031709560                       # Total energy per rank (pJ)
system.mem_ctrl.rank1.averagePower         510.863193                       # Core power per rank (mW)
system.mem_ctrl.rank1.totalIdleTime                 0                       # Total Idle time Per DRAM Rank
system.mem_ctrl.rank1.memoryStateTime::IDLE   1611915750                       # Time in different power states
system.mem_ctrl.rank1.memoryStateTime::REF    132600000                       # Time in different power states
system.mem_ctrl.rank1.memoryStateTime::SREF            0                       # Time in different power states
system.mem_ctrl.rank1.memoryStateTime::PRE_PDN            0                       # Time in different power states
system.mem_ctrl.rank1.memoryStateTime::ACT   2232497250                       # Time in different power states
system.mem_ctrl.rank1.memoryStateTime::ACT_PDN            0                       # Time in different power states
system.mem_ctrl.rank0.actEnergy               5297880                       # Energy for activate commands per rank (pJ)
system.mem_ctrl.rank0.preEnergy               2812095                       # Energy for precharge commands per rank (pJ)
system.mem_ctrl.rank0.readEnergy             14672700                       # Energy for read commands per rank (pJ)
system.mem_ctrl.rank0.writeEnergy              866520                       # Energy for write commands per rank (pJ)
system.mem_ctrl.rank0.refreshEnergy      313466400.000000                       # Energy for refresh commands per rank (pJ)
system.mem_ctrl.rank0.actBackEnergy         736924500                       # Energy for active background per rank (pJ)
system.mem_ctrl.rank0.preBackEnergy         906605280                       # Energy for precharge background per rank (pJ)
system.mem_ctrl.rank0.actPowerDownEnergy            0                       # Energy for active power-down per rank (pJ)
system.mem_ctrl.rank0.prePowerDownEnergy            0                       # Energy for precharge power-down per rank (pJ)
system.mem_ctrl.rank0.selfRefreshEnergy             0                       # Energy for self refresh per rank (pJ)
system.mem_ctrl.rank0.totalEnergy          1980645375                       # Total energy per rank (pJ)
system.mem_ctrl.rank0.averagePower         498.023359                       # Core power per rank (mW)
system.mem_ctrl.rank0.totalIdleTime                 0                       # Total Idle time Per DRAM Rank
system.mem_ctrl.rank0.memoryStateTime::IDLE   2349504750                       # Time in different power states
system.mem_ctrl.rank0.memoryStateTime::REF    132600000                       # Time in different power states
system.mem_ctrl.rank0.memoryStateTime::SREF            0                       # Time in different power states
system.mem_ctrl.rank0.memoryStateTime::PRE_PDN            0                       # Time in different power states
system.mem_ctrl.rank0.memoryStateTime::ACT   1494908250                       # Time in different power states
system.mem_ctrl.rank0.memoryStateTime::ACT_PDN            0                       # Time in different power states
system.mem_ctrl.power_state.pwrStateResidencyTicks::UNDEFINED   3977013000                       # Cumulative time (in ticks) in various power states
system.cache_medium.blocked_cycles::no_mshrs            0                       # number of cycles access was blocked
system.cache_medium.blocked_cycles::no_targets            0                       # number of cycles access was blocked
system.cache_medium.blocked::no_mshrs               0                       # number of cycles access was blocked
system.cache_medium.blocked::no_targets             0                       # number of cycles access was blocked
system.cache_medium.avg_blocked_cycles::no_mshrs          nan                       # average number of cycles each access was blocked
system.cache_medium.avg_blocked_cycles::no_targets          nan                       # average number of cycles each access was blocked
system.cache_medium.replacements                    0                       # number of replacements
system.cache_medium.power_state.pwrStateResidencyTicks::UNDEFINED   3977013000                       # Cumulative time (in ticks) in various power states
system.cache_medium.tags.tagsinuse                  0                       # Cycle average of tags in use
system.cache_medium.tags.total_refs                 0                       # Total number of references to valid blocks.
system.cache_medium.tags.sampled_refs               0                       # Sample count of references to valid blocks.
system.cache_medium.tags.avg_refs                 nan                       # Average number of references to valid blocks.
system.cache_medium.tags.warmup_cycle               0                       # Cycle when the warmup percentage was hit.
system.cache_medium.tags.tag_accesses               0                       # Number of tag accesses
system.cache_medium.tags.data_accesses              0                       # Number of data accesses
system.cache_medium.tags.power_state.pwrStateResidencyTicks::UNDEFINED   3977013000                       # Cumulative time (in ticks) in various power states
system.clk_domain.clock                          1000                       # Clock period in ticks
system.clk_domain.voltage_domain.voltage            1                       # Voltage in Volts
system.dcache.demand_hits::.cpu.data           359992                       # number of demand (read+write) hits
system.dcache.demand_hits::total               359992                       # number of demand (read+write) hits
system.dcache.overall_hits::.cpu.data          360067                       # number of overall hits
system.dcache.overall_hits::total              360067                       # number of overall hits
system.dcache.demand_misses::.cpu.data           9070                       # number of demand (read+write) misses
system.dcache.demand_misses::total               9070                       # number of demand (read+write) misses
system.dcache.overall_misses::.cpu.data          9070                       # number of overall misses
system.dcache.overall_misses::total              9070                       # number of overall misses
system.dcache.demand_miss_latency::.cpu.data    270079000                       # number of demand (read+write) miss cycles
system.dcache.demand_miss_latency::total    270079000                       # number of demand (read+write) miss cycles
system.dcache.overall_miss_latency::.cpu.data    270079000                       # number of overall miss cycles
system.dcache.overall_miss_latency::total    270079000                       # number of overall miss cycles
system.dcache.demand_accesses::.cpu.data       369062                       # number of demand (read+write) accesses
system.dcache.demand_accesses::total           369062                       # number of demand (read+write) accesses
system.dcache.overall_accesses::.cpu.data       369137                       # number of overall (read+write) accesses
system.dcache.overall_accesses::total          369137                       # number of overall (read+write) accesses
system.dcache.demand_miss_rate::.cpu.data     0.024576                       # miss rate for demand accesses
system.dcache.demand_miss_rate::total        0.024576                       # miss rate for demand accesses
system.dcache.overall_miss_rate::.cpu.data     0.024571                       # miss rate for overall accesses
system.dcache.overall_miss_rate::total       0.024571                       # miss rate for overall accesses
system.dcache.demand_avg_miss_latency::.cpu.data 29777.177508                       # average overall miss latency
system.dcache.demand_avg_miss_latency::total 29777.177508                       # average overall miss latency
system.dcache.overall_avg_miss_latency::.cpu.data 29777.177508                       # average overall miss latency
system.dcache.overall_avg_miss_latency::total 29777.177508                       # average overall miss latency
system.dcache.blocked_cycles::no_mshrs              0                       # number of cycles access was blocked
system.dcache.blocked_cycles::no_targets            0                       # number of cycles access was blocked
system.dcache.blocked::no_mshrs                     0                       # number of cycles access was blocked
system.dcache.blocked::no_targets                   0                       # number of cycles access was blocked
system.dcache.avg_blocked_cycles::no_mshrs          nan                       # average number of cycles each access was blocked
system.dcache.avg_blocked_cycles::no_targets          nan                       # average number of cycles each access was blocked
system.dcache.writebacks::.writebacks            3855                       # number of writebacks
system.dcache.writebacks::total                  3855                       # number of writebacks
system.dcache.demand_mshr_misses::.cpu.data         9070                       # number of demand (read+write) MSHR misses
system.dcache.demand_mshr_misses::total          9070                       # number of demand (read+write) MSHR misses
system.dcache.overall_mshr_misses::.cpu.data         9070                       # number of overall MSHR misses
[...]
system.dcache.tags.age_task_id_blocks_1024::2          107                       # Occupied blocks per task id
system.dcache.tags.age_task_id_blocks_1024::3           94                       # Occupied blocks per task id
system.dcache.tags.occ_task_id_percent::1024            1                       # Percentage of cache occupancy per task id
system.dcache.tags.tag_accesses               2705588                       # Number of tag accesses
system.dcache.tags.data_accesses              2705588                       # Number of data accesses
system.dcache.tags.power_state.pwrStateResidencyTicks::UNDEFINED  27307547000                       # Cumulative time (in ticks) in various power states
system.cache_large.blocked_cycles::no_mshrs            0                       # number of cycles access was blocked
system.cache_large.blocked_cycles::no_targets            0                       # number of cycles access was blocked
system.cache_large.blocked::no_mshrs                0                       # number of cycles access was blocked
system.cache_large.blocked::no_targets              0                       # number of cycles access was blocked
system.cache_large.avg_blocked_cycles::no_mshrs          nan                       # average number of cycles each access was blocked
system.cache_large.avg_blocked_cycles::no_targets          nan                       # average number of cycles each access was blocked
system.cache_large.replacements                     0                       # number of replacements
system.cache_large.power_state.pwrStateResidencyTicks::UNDEFINED  27307547000                       # Cumulative time (in ticks) in various power states
system.cache_large.tags.tagsinuse                   0                       # Cycle average of tags in use
system.cache_large.tags.total_refs                  0                       # Total number of references to valid blocks.
system.cache_large.tags.sampled_refs                0                       # Sample count of references to valid blocks.
system.cache_large.tags.avg_refs                  nan                       # Average number of references to valid blocks.
system.cache_large.tags.warmup_cycle                0                       # Cycle when the warmup percentage was hit.
system.cache_large.tags.tag_accesses                0                       # Number of tag accesses
system.cache_large.tags.data_accesses               0                       # Number of data accesses
system.cache_large.tags.power_state.pwrStateResidencyTicks::UNDEFINED  27307547000                       # Cumulative time (in ticks) in various power states
system.l2cache.demand_hits::.cpu.inst           33765                       # number of demand (read+write) hits
system.l2cache.demand_hits::.cpu.data           36170                       # number of demand (read+write) hits
system.l2cache.demand_hits::total               69935                       # number of demand (read+write) hits
system.l2cache.overall_hits::.cpu.inst          33765                       # number of overall hits
system.l2cache.overall_hits::.cpu.data          36170                       # number of overall hits
system.l2cache.overall_hits::total              69935                       # number of overall hits
system.l2cache.demand_misses::.cpu.inst         78567                       # number of demand (read+write) misses
system.l2cache.demand_misses::.cpu.data         38298                       # number of demand (read+write) misses
system.l2cache.demand_misses::total            116865                       # number of demand (read+write) misses
system.l2cache.overall_misses::.cpu.inst        78567                       # number of overall misses
system.l2cache.overall_misses::.cpu.data        38298                       # number of overall misses
system.l2cache.overall_misses::total           116865                       # number of overall misses
system.l2cache.demand_miss_latency::.cpu.inst   1372596000                       # number of demand (read+write) miss cycles
system.l2cache.demand_miss_latency::.cpu.data    929020000                       # number of demand (read+write) miss cycles
system.l2cache.demand_miss_latency::total   2301616000                       # number of demand (read+write) miss cycles
system.l2cache.overall_miss_latency::.cpu.inst   1372596000                       # number of overall miss cycles
system.l2cache.overall_miss_latency::.cpu.data    929020000                       # number of overall miss cycles
system.l2cache.overall_miss_latency::total   2301616000                       # number of overall miss cycles
system.l2cache.demand_accesses::.cpu.inst       112332                       # number of demand (read+write) accesses
system.l2cache.demand_accesses::.cpu.data        74468                       # number of demand (read+write) accesses
system.l2cache.demand_accesses::total          186800                       # number of demand (read+write) accesses
system.l2cache.overall_accesses::.cpu.inst       112332                       # number of overall (read+write) accesses
system.l2cache.overall_accesses::.cpu.data        74468                       # number of overall (read+write) accesses
system.l2cache.overall_accesses::total         186800                       # number of overall (read+write) accesses
system.l2cache.demand_miss_rate::.cpu.inst     0.699418                       # miss rate for demand accesses
system.l2cache.demand_miss_rate::.cpu.data     0.514288                       # miss rate for demand accesses
system.l2cache.demand_miss_rate::total       0.625616                       # miss rate for demand accesses
system.l2cache.overall_miss_rate::.cpu.inst     0.699418                       # miss rate for overall accesses
system.l2cache.overall_miss_rate::.cpu.data     0.514288                       # miss rate for overall accesses
system.l2cache.overall_miss_rate::total      0.625616                       # miss rate for overall accesses
system.l2cache.demand_avg_miss_latency::.cpu.inst 17470.388331                       # average overall miss latency
system.l2cache.demand_avg_miss_latency::.cpu.data 24257.663586                       # average overall miss latency
system.l2cache.demand_avg_miss_latency::total 19694.656227                       # average overall miss latency
system.l2cache.overall_avg_miss_latency::.cpu.inst 17470.388331                       # average overall miss latency
system.l2cache.overall_avg_miss_latency::.cpu.data 24257.663586                       # average overall miss latency
system.l2cache.overall_avg_miss_latency::total 19694.656227                       # average overall miss latency
system.l2cache.blocked_cycles::no_mshrs             0                       # number of cycles access was blocked
system.l2cache.blocked_cycles::no_targets            0                       # number of cycles access was blocked
system.l2cache.blocked::no_mshrs                    0                       # number of cycles access was blocked
system.l2cache.blocked::no_targets                  0                       # number of cycles access was blocked
system.l2cache.avg_blocked_cycles::no_mshrs          nan                       # average number of cycles each access was blocked
system.l2cache.avg_blocked_cycles::no_targets          nan                       # average number of cycles each access was blocked
system.l2cache.writebacks::.writebacks          17017                       # number of writebacks
system.l2cache.writebacks::total                17017                       # number of writebacks
system.l2cache.demand_mshr_misses::.cpu.inst        78567                       # number of demand (read+write) MSHR misses
system.l2cache.demand_mshr_misses::.cpu.data        38298                       # number of demand (read+write) MSHR misses
system.l2cache.demand_mshr_misses::total       116865                       # number of demand (read+write) MSHR misses
system.l2cache.overall_mshr_misses::.cpu.inst        78567                       # number of overall MSHR misses
system.l2cache.overall_mshr_misses::.cpu.data        38298                       # number of overall MSHR misses
system.l2cache.overall_mshr_misses::total       116865                       # number of overall MSHR misses
system.l2cache.demand_mshr_miss_latency::.cpu.inst   1215462000                       # number of demand (read+write) MSHR miss cycles
system.l2cache.demand_mshr_miss_latency::.cpu.data    852424000                       # number of demand (read+write) MSHR miss cycles
system.l2cache.demand_mshr_miss_latency::total   2067886000                       # number of demand (read+write) MSHR miss cycles
system.l2cache.overall_mshr_miss_latency::.cpu.inst   1215462000                       # number of overall MSHR miss cycles
system.l2cache.overall_mshr_miss_latency::.cpu.data    852424000                       # number of overall MSHR miss cycles
system.l2cache.overall_mshr_miss_latency::total   2067886000                       # number of overall MSHR miss cycles
system.l2cache.demand_mshr_miss_rate::.cpu.inst     0.699418                       # mshr miss rate for demand accesses
system.l2cache.demand_mshr_miss_rate::.cpu.data     0.514288                       # mshr miss rate for demand accesses
system.l2cache.demand_mshr_miss_rate::total     0.625616                       # mshr miss rate for demand accesses
system.l2cache.overall_mshr_miss_rate::.cpu.inst     0.699418                       # mshr miss rate for overall accesses
system.l2cache.overall_mshr_miss_rate::.cpu.data     0.514288                       # mshr miss rate for overall accesses
system.l2cache.overall_mshr_miss_rate::total     0.625616                       # mshr miss rate for overall accesses
system.l2cache.demand_avg_mshr_miss_latency::.cpu.inst 15470.388331                       # average overall mshr miss latency
system.l2cache.demand_avg_mshr_miss_latency::.cpu.data 22257.663586                       # average overall mshr miss latency
system.l2cache.demand_avg_mshr_miss_latency::total 17694.656227                       # average overall mshr miss latency
system.l2cache.overall_avg_mshr_miss_latency::.cpu.inst 15470.388331                       # average overall mshr miss latency
system.l2cache.overall_avg_mshr_miss_latency::.cpu.data 22257.663586                       # average overall mshr miss latency
system.l2cache.overall_avg_mshr_miss_latency::total 17694.656227                       # average overall mshr miss latency
system.l2cache.replacements                    131074                       # number of replacements
system.l2cache.ReadReq_hits::.cpu.inst          33765                       # number of ReadReq hits
system.l2cache.ReadReq_hits::.cpu.data          36170                       # number of ReadReq hits
system.l2cache.ReadReq_hits::total              69935                       # number of ReadReq hits
system.l2cache.ReadReq_misses::.cpu.inst        78567                       # number of ReadReq misses
system.l2cache.ReadReq_misses::.cpu.data        38298                       # number of ReadReq misses
system.l2cache.ReadReq_misses::total           116865                       # number of ReadReq misses
system.l2cache.ReadReq_miss_latency::.cpu.inst   1372596000                       # number of ReadReq miss cycles
system.l2cache.ReadReq_miss_latency::.cpu.data    929020000                       # number of ReadReq miss cycles
system.l2cache.ReadReq_miss_latency::total   2301616000                       # number of ReadReq miss cycles
system.l2cache.ReadReq_accesses::.cpu.inst       112332                       # number of ReadReq accesses(hits+misses)
system.l2cache.ReadReq_accesses::.cpu.data        74468                       # number of ReadReq accesses(hits+misses)
system.l2cache.ReadReq_accesses::total         186800                       # number of ReadReq accesses(hits+misses)
system.l2cache.ReadReq_miss_rate::.cpu.inst     0.699418                       # miss rate for ReadReq accesses
system.l2cache.ReadReq_miss_rate::.cpu.data     0.514288                       # miss rate for ReadReq accesses
system.l2cache.ReadReq_miss_rate::total      0.625616                       # miss rate for ReadReq accesses
system.l2cache.ReadReq_avg_miss_latency::.cpu.inst 17470.388331                       # average ReadReq miss latency
system.l2cache.ReadReq_avg_miss_latency::.cpu.data 24257.663586                       # average ReadReq miss latency
system.l2cache.ReadReq_avg_miss_latency::total 19694.656227                       # average ReadReq miss latency
system.l2cache.ReadReq_mshr_misses::.cpu.inst        78567                       # number of ReadReq MSHR misses
system.l2cache.ReadReq_mshr_misses::.cpu.data        38298                       # number of ReadReq MSHR misses
system.l2cache.ReadReq_mshr_misses::total       116865                       # number of ReadReq MSHR misses
system.l2cache.ReadReq_mshr_miss_latency::.cpu.inst   1215462000                       # number of ReadReq MSHR miss cycles
system.l2cache.ReadReq_mshr_miss_latency::.cpu.data    852424000                       # number of ReadReq MSHR miss cycles
system.l2cache.ReadReq_mshr_miss_latency::total   2067886000                       # number of ReadReq MSHR miss cycles
system.l2cache.ReadReq_mshr_miss_rate::.cpu.inst     0.699418                       # mshr miss rate for ReadReq accesses
system.l2cache.ReadReq_mshr_miss_rate::.cpu.data     0.514288                       # mshr miss rate for ReadReq accesses
system.l2cache.ReadReq_mshr_miss_rate::total     0.625616                       # mshr miss rate for ReadReq accesses
system.l2cache.ReadReq_avg_mshr_miss_latency::.cpu.inst 15470.388331                       # average ReadReq mshr miss latency
system.l2cache.ReadReq_avg_mshr_miss_latency::.cpu.data 22257.663586                       # average ReadReq mshr miss latency
system.l2cache.ReadReq_avg_mshr_miss_latency::total 17694.656227                       # average ReadReq mshr miss latency
system.l2cache.WritebackDirty_hits::.writebacks        22781                       # number of WritebackDirty hits
system.l2cache.WritebackDirty_hits::total        22781                       # number of WritebackDirty hits
system.l2cache.WritebackDirty_accesses::.writebacks        22781                       # number of WritebackDirty accesses(hits+misses)
system.l2cache.WritebackDirty_accesses::total        22781                       # number of WritebackDirty accesses(hits+misses)
system.l2cache.power_state.pwrStateResidencyTicks::UNDEFINED  27307547000                       # Cumulative time (in ticks) in various power states
system.l2cache.tags.tagsinuse              510.163339                       # Cycle average of tags in use
system.l2cache.tags.total_refs                 209581                       # Total number of references to valid blocks.
system.l2cache.tags.sampled_refs               131586                       # Sample count of references to valid blocks.
system.l2cache.tags.avg_refs                 1.592730                       # Average number of references to valid blocks.
system.l2cache.tags.warmup_cycle                78000                       # Cycle when the warmup percentage was hit.
system.l2cache.tags.occ_blocks::.writebacks    54.837141                       # Average occupied blocks per requestor
system.l2cache.tags.occ_blocks::.cpu.inst   250.096397                       # Average occupied blocks per requestor
system.l2cache.tags.occ_blocks::.cpu.data   205.229801                       # Average occupied blocks per requestor
system.l2cache.tags.occ_percent::.writebacks     0.107104                       # Average percentage of cache occupancy
system.l2cache.tags.occ_percent::.cpu.inst     0.488470                       # Average percentage of cache occupancy
system.l2cache.tags.occ_percent::.cpu.data     0.400839                       # Average percentage of cache occupancy
system.l2cache.tags.occ_percent::total       0.996413                       # Average percentage of cache occupancy
system.l2cache.tags.occ_task_id_blocks::1024          512                       # Occupied blocks per task id
system.l2cache.tags.age_task_id_blocks_1024::0           63                       # Occupied blocks per task id
system.l2cache.tags.age_task_id_blocks_1024::1          100                       # Occupied blocks per task id
system.l2cache.tags.age_task_id_blocks_1024::2          146                       # Occupied blocks per task id
system.l2cache.tags.age_task_id_blocks_1024::3          203                       # Occupied blocks per task id
system.l2cache.tags.occ_task_id_percent::1024            1                       # Percentage of cache occupancy per task id
system.l2cache.tags.tag_accesses               341167                       # Number of tag accesses
system.l2cache.tags.data_accesses              341167                       # Number of data accesses
system.l2cache.tags.power_state.pwrStateResidencyTicks::UNDEFINED  27307547000                       # Cumulative time (in ticks) in various power states
system.l2bar.trans_dist::ReadReq               186800                       # Transaction distribution
system.l2bar.trans_dist::ReadResp              186800                       # Transaction distribution
system.l2bar.trans_dist::WritebackDirty         22781                       # Transaction distribution
system.l2bar.pkt_count_system.dcache.mem_side::system.l2cache.cpu_side       171717                       # Packet count per connected master and slave (bytes)
system.l2bar.pkt_count_system.icache.mem_side::system.l2cache.cpu_side       224664                       # Packet count per connected master and slave (bytes)
system.l2bar.pkt_count::total                  396381                       # Packet count per connected master and slave (bytes)
system.l2bar.pkt_size_system.dcache.mem_side::system.l2cache.cpu_side      6223936                       # Cumulative packet size per connected master and slave (bytes)
system.l2bar.pkt_size_system.icache.mem_side::system.l2cache.cpu_side      7189248                       # Cumulative packet size per connected master and slave (bytes)
system.l2bar.pkt_size::total                 13413184                       # Cumulative packet size per connected master and slave (bytes)
system.l2bar.respLayer1.occupancy           561660000                       # Layer occupancy (ticks)
system.l2bar.respLayer1.utilization               2.1                       # Layer utilization (%)
system.l2bar.reqLayer0.occupancy            300705000                       # Layer occupancy (ticks)
system.l2bar.reqLayer0.utilization                1.1                       # Layer utilization (%)
system.l2bar.respLayer0.occupancy           372340000                       # Layer occupancy (ticks)
system.l2bar.respLayer0.utilization               1.4                       # Layer utilization (%)
system.l2bar.power_state.pwrStateResidencyTicks::UNDEFINED  27307547000                       # Cumulative time (in ticks) in various power states
system.cpu.dtb.walker.power_state.pwrStateResidencyTicks::UNDEFINED  27307547000                       # Cumulative time (in ticks) in various power states
system.cpu.interrupts.clk_domain.clock          16000                       # Clock period in ticks
system.cpu.itb.walker.power_state.pwrStateResidencyTicks::UNDEFINED  27307547000                       # Cumulative time (in ticks) in various power states
system.cpu.power_state.numTransitions               1                       # Number of power state transitions
system.cpu.power_state.pwrStateResidencyTicks::ON  27307547000                       # Cumulative time (in ticks) in various power states

---------- End Simulation Statistics   ----------
