
---------- Begin Simulation Statistics ----------
final_tick                                 4941081000                       # Number of ticks from beginning of simulation (restored from checkpoints and never reset)
host_inst_rate                                 246247                       # Simulator instruction rate (inst/s)
host_mem_usage                                1322632                       # Number of bytes of host memory used
host_op_rate                                   549709                       # Simulator op (including micro ops) rate (op/s)
host_seconds                                     4.06                       # Real time elapsed on the host
host_tick_rate                             1216613911                       # Simulator tick rate (ticks/s)
sim_freq                                 1000000000000                       # Frequency of simulated ticks
sim_insts                                     1000002                       # Number of instructions simulated
sim_ops                                       2232530                       # Number of ops (including micro ops) simulated
sim_seconds                                  0.004941                       # Number of seconds simulated
sim_ticks                                  4941081000                       # Number of ticks simulated
system.cpu.Branches                            216962                       # Number of branches fetched
system.cpu.committedInsts                     1000002                       # Number of instructions committed
system.cpu.committedOps                       2232530                       # Number of ops (including micro ops) committed
system.cpu.dtb.rdAccesses                      263485                       # TLB accesses on read requests
system.cpu.dtb.rdMisses                           105                       # TLB misses on read requests
system.cpu.dtb.wrAccesses                       79584                       # TLB accesses on write requests
system.cpu.dtb.wrMisses                           108                       # TLB misses on write requests
system.cpu.idle_fraction                            0                       # Percentage of idle cycles
system.cpu.itb.rdAccesses                           0                       # TLB accesses on read requests
system.cpu.itb.rdMisses                             0                       # TLB misses on read requests
system.cpu.itb.wrAccesses                     1370173                       # TLB accesses on write requests
system.cpu.itb.wrMisses                           419                       # TLB misses on write requests
system.cpu.not_idle_fraction                        1                       # Percentage of non-idle cycles
system.cpu.numCycles                          4941070                       # number of cpu cycles simulated
system.cpu.numWorkItemsCompleted                    0                       # number of work items this cpu completed
system.cpu.numWorkItemsStarted                      0                       # number of work items this cpu started
system.cpu.num_busy_cycles                    4941070                       # Number of busy cycles
system.cpu.num_cc_register_reads              1518798                       # number of times the CC registers were read
system.cpu.num_cc_register_writes              547151                       # number of times the CC registers were written
system.cpu.num_conditional_control_insts       156490                       # number of instructions that are conditional controls
system.cpu.num_fp_alu_accesses                 500168                       # Number of float alu accesses
system.cpu.num_fp_insts                        500168                       # number of float instructions
system.cpu.num_fp_register_reads               894107                       # number of times the floating registers were read
system.cpu.num_fp_register_writes              456038                       # number of times the floating registers were written
system.cpu.num_func_calls                       31544                       # number of times a function call or return occured
system.cpu.num_idle_cycles                          0                       # Number of idle cycles
system.cpu.num_int_alu_accesses               1832042                       # Number of integer alu accesses
system.cpu.num_int_insts                      1832042                       # number of integer instructions
system.cpu.num_int_register_reads             3506430                       # number of times the integer registers were read
system.cpu.num_int_register_writes            1456919                       # number of times the integer registers were written
system.cpu.num_load_insts                      263330                       # Number of load instructions
system.cpu.num_mem_refs                        342902                       # number of memory refs
system.cpu.num_store_insts                      79572                       # Number of store instructions
system.cpu.num_vec_alu_accesses                     0                       # Number of vector alu accesses
system.cpu.num_vec_insts                            0                       # number of vector instructions
system.cpu.num_vec_register_reads                   0                       # number of times the vector registers were read
system.cpu.num_vec_register_writes                  0                       # number of times the vector registers were written
system.cpu.op_class::No_OpClass                 38784      1.74%      1.74% # Class of executed instruction
system.cpu.op_class::IntAlu                   1545608     69.23%     70.97% # Class of executed instruction
system.cpu.op_class::IntMult                      327      0.01%     70.98% # Class of executed instruction
system.cpu.op_class::IntDiv                       861      0.04%     71.02% # Class of executed instruction
system.cpu.op_class::FloatAdd                    1833      0.08%     71.10% # Class of executed instruction
system.cpu.op_class::FloatCmp                       0      0.00%     71.10% # Class of executed instruction
system.cpu.op_class::FloatCvt                       0      0.00%     71.10% # Class of executed instruction
system.cpu.op_class::FloatMult                      0      0.00%     71.10% # Class of executed instruction
system.cpu.op_class::FloatMultAcc                   0      0.00%     71.10% # Class of executed instruction
system.cpu.op_class::FloatDiv                       0      0.00%     71.10% # Class of executed instruction
system.cpu.op_class::FloatMisc                      0      0.00%     71.10% # Class of executed instruction
system.cpu.op_class::FloatSqrt                      0      0.00%     71.10% # Class of executed instruction
system.cpu.op_class::SimdAdd                    18912      0.85%     71.95% # Class of executed instruction
system.cpu.op_class::SimdAddAcc                     0      0.00%     71.95% # Class of executed instruction
system.cpu.op_class::SimdAlu                   138067      6.18%     78.13% # Class of executed instruction
system.cpu.op_class::SimdCmp                       36      0.00%     78.14% # Class of executed instruction
system.cpu.op_class::SimdCvt                   115436      5.17%     83.31% # Class of executed instruction
system.cpu.op_class::SimdMisc                   23832      1.07%     84.37% # Class of executed instruction
system.cpu.op_class::SimdMult                       0      0.00%     84.37% # Class of executed instruction
system.cpu.op_class::SimdMultAcc                    0      0.00%     84.37% # Class of executed instruction
system.cpu.op_class::SimdShift                   4878      0.22%     84.59% # Class of executed instruction
system.cpu.op_class::SimdShiftAcc                   0      0.00%     84.59% # Class of executed instruction
system.cpu.op_class::SimdDiv                        0      0.00%     84.59% # Class of executed instruction
system.cpu.op_class::SimdSqrt                       0      0.00%     84.59% # Class of executed instruction
system.cpu.op_class::SimdFloatAdd                 152      0.01%     84.60% # Class of executed instruction
system.cpu.op_class::SimdFloatAlu                   0      0.00%     84.60% # Class of executed instruction
system.cpu.op_class::SimdFloatCmp                   0      0.00%     84.60% # Class of executed instruction
system.cpu.op_class::SimdFloatCvt                 725      0.03%     84.63% # Class of executed instruction
system.cpu.op_class::SimdFloatDiv                 104      0.00%     84.64% # Class of executed instruction
system.cpu.op_class::SimdFloatMisc                  0      0.00%     84.64% # Class of executed instruction
system.cpu.op_class::SimdFloatMult                104      0.00%     84.64% # Class of executed instruction
system.cpu.op_class::SimdFloatMultAcc               0      0.00%     84.64% # Class of executed instruction
system.cpu.op_class::SimdFloatSqrt                  0      0.00%     84.64% # Class of executed instruction
system.cpu.op_class::SimdReduceAdd                  0      0.00%     84.64% # Class of executed instruction
system.cpu.op_class::SimdReduceAlu                  0      0.00%     84.64% # Class of executed instruction
system.cpu.op_class::SimdReduceCmp                  0      0.00%     84.64% # Class of executed instruction
system.cpu.op_class::SimdFloatReduceAdd             0      0.00%     84.64% # Class of executed instruction
system.cpu.op_class::SimdFloatReduceCmp             0      0.00%     84.64% # Class of executed instruction
system.cpu.op_class::SimdAes                        0      0.00%     84.64% # Class of executed instruction
system.cpu.op_class::SimdAesMix                     0      0.00%     84.64% # Class of executed instruction
system.cpu.op_class::SimdSha1Hash                   0      0.00%     84.64% # Class of executed instruction
system.cpu.op_class::SimdSha1Hash2                  0      0.00%     84.64% # Class of executed instruction
system.cpu.op_class::SimdSha256Hash                 0      0.00%     84.64% # Class of executed instruction
system.cpu.op_class::SimdSha256Hash2                0      0.00%     84.64% # Class of executed instruction
system.cpu.op_class::SimdShaSigma2                  0      0.00%     84.64% # Class of executed instruction
system.cpu.op_class::SimdShaSigma3                  0      0.00%     84.64% # Class of executed instruction
system.cpu.op_class::SimdPredAlu                    0      0.00%     84.64% # Class of executed instruction
system.cpu.op_class::MemRead                   166961      7.48%     92.12% # Class of executed instruction
system.cpu.op_class::MemWrite                   56348      2.52%     94.64% # Class of executed instruction
system.cpu.op_class::FloatMemRead               96369      4.32%     98.96% # Class of executed instruction
system.cpu.op_class::FloatMemWrite              23224      1.04%    100.00% # Class of executed instruction
system.cpu.op_class::IprAccess                      0      0.00%    100.00% # Class of executed instruction
system.cpu.op_class::InstPrefetch                   0      0.00%    100.00% # Class of executed instruction
system.cpu.op_class::total                    2232561                       # Class of executed instruction
system.cpu.workload.numSyscalls                    62                       # Number of system calls
system.dynamic_cache.flushTicks                     0                       # Ticks taken to flush
system.dynamic_cache.numFlushes                     0                       # Number of Flushes Taken
system.cache_small.blocked_cycles::no_mshrs            0                       # number of cycles access was blocked
system.cache_small.blocked_cycles::no_targets            0                       # number of cycles access was blocked
system.cache_small.blocked::no_mshrs                0                       # number of cycles access was blocked
system.cache_small.blocked::no_targets              0                       # number of cycles access was blocked
system.cache_small.avg_blocked_cycles::no_mshrs          nan                       # average number of cycles each access was blocked
system.cache_small.avg_blocked_cycles::no_targets          nan                       # average number of cycles each access was blocked
system.cache_small.replacements                     0                       # number of replacements
system.cache_small.power_state.pwrStateResidencyTicks::UNDEFINED   4941081000                       # Cumulative time (in ticks) in various power states
system.cache_small.tags.tagsinuse                   0                       # Cycle average of tags in use
system.cache_small.tags.total_refs                  0                       # Total number of references to valid blocks.
system.cache_small.tags.sampled_refs                0                       # Sample count of references to valid blocks.
system.cache_small.tags.avg_refs                  nan                       # Average number of references to valid blocks.
system.cache_small.tags.warmup_cycle                0                       # Cycle when the warmup percentage was hit.
system.cache_small.tags.tag_accesses                0                       # Number of tag accesses
system.cache_small.tags.data_accesses               0                       # Number of data accesses
system.cache_small.tags.power_state.pwrStateResidencyTicks::UNDEFINED   4941081000                       # Cumulative time (in ticks) in various power states
system.icache.demand_hits::.cpu.inst          1356280                       # number of demand (read+write) hits
system.icache.demand_hits::total              1356280                       # number of demand (read+write) hits
system.icache.overall_hits::.cpu.inst         1356280                       # number of overall hits
system.icache.overall_hits::total             1356280                       # number of overall hits
system.icache.demand_misses::.cpu.inst          13893                       # number of demand (read+write) misses
system.icache.demand_misses::total              13893                       # number of demand (read+write) misses
system.icache.overall_misses::.cpu.inst         13893                       # number of overall misses
system.icache.overall_misses::total             13893                       # number of overall misses
system.icache.demand_miss_latency::.cpu.inst    699493000                       # number of demand (read+write) miss cycles
system.icache.demand_miss_latency::total    699493000                       # number of demand (read+write) miss cycles
system.icache.overall_miss_latency::.cpu.inst    699493000                       # number of overall miss cycles
system.icache.overall_miss_latency::total    699493000                       # number of overall miss cycles
system.icache.demand_accesses::.cpu.inst      1370173                       # number of demand (read+write) accesses
system.icache.demand_accesses::total          1370173                       # number of demand (read+write) accesses
system.icache.overall_accesses::.cpu.inst      1370173                       # number of overall (read+write) accesses
system.icache.overall_accesses::total         1370173                       # number of overall (read+write) accesses
system.icache.demand_miss_rate::.cpu.inst     0.010140                       # miss rate for demand accesses
system.icache.demand_miss_rate::total        0.010140                       # miss rate for demand accesses
system.icache.overall_miss_rate::.cpu.inst     0.010140                       # miss rate for overall accesses
system.icache.overall_miss_rate::total       0.010140                       # miss rate for overall accesses
system.icache.demand_avg_miss_latency::.cpu.inst 50348.592817                       # average overall miss latency
system.icache.demand_avg_miss_latency::total 50348.592817                       # average overall miss latency
system.icache.overall_avg_miss_latency::.cpu.inst 50348.592817                       # average overall miss latency
system.icache.overall_avg_miss_latency::total 50348.592817                       # average overall miss latency
system.icache.blocked_cycles::no_mshrs              0                       # number of cycles access was blocked
system.icache.blocked_cycles::no_targets            0                       # number of cycles access was blocked
system.icache.blocked::no_mshrs                     0                       # number of cycles access was blocked
system.icache.blocked::no_targets                   0                       # number of cycles access was blocked
system.icache.avg_blocked_cycles::no_mshrs          nan                       # average number of cycles each access was blocked
system.icache.avg_blocked_cycles::no_targets          nan                       # average number of cycles each access was blocked
system.icache.demand_mshr_misses::.cpu.inst        13893                       # number of demand (read+write) MSHR misses
system.icache.demand_mshr_misses::total         13893                       # number of demand (read+write) MSHR misses
system.icache.overall_mshr_misses::.cpu.inst        13893                       # number of overall MSHR misses
system.icache.overall_mshr_misses::total        13893                       # number of overall MSHR misses
system.icache.demand_mshr_miss_latency::.cpu.inst    671707000                       # number of demand (read+write) MSHR miss cycles
system.icache.demand_mshr_miss_latency::total    671707000                       # number of demand (read+write) MSHR miss cycles
system.icache.overall_mshr_miss_latency::.cpu.inst    671707000                       # number of overall MSHR miss cycles
system.icache.overall_mshr_miss_latency::total    671707000                       # number of overall MSHR miss cycles
system.icache.demand_mshr_miss_rate::.cpu.inst     0.010140                       # mshr miss rate for demand accesses
system.icache.demand_mshr_miss_rate::total     0.010140                       # mshr miss rate for demand accesses
system.icache.overall_mshr_miss_rate::.cpu.inst     0.010140                       # mshr miss rate for overall accesses
system.icache.overall_mshr_miss_rate::total     0.010140                       # mshr miss rate for overall accesses
system.icache.demand_avg_mshr_miss_latency::.cpu.inst 48348.592817                       # average overall mshr miss latency
system.icache.demand_avg_mshr_miss_latency::total 48348.592817                       # average overall mshr miss latency
system.icache.overall_avg_mshr_miss_latency::.cpu.inst 48348.592817                       # average overall mshr miss latency
system.icache.overall_avg_mshr_miss_latency::total 48348.592817                       # average overall mshr miss latency
system.icache.replacements                      13637                       # number of replacements
system.icache.ReadReq_hits::.cpu.inst         1356280                       # number of ReadReq hits
system.icache.ReadReq_hits::total             1356280                       # number of ReadReq hits
system.icache.ReadReq_misses::.cpu.inst         13893                       # number of ReadReq misses
system.icache.ReadReq_misses::total             13893                       # number of ReadReq misses
system.icache.ReadReq_miss_latency::.cpu.inst    699493000                       # number of ReadReq miss cycles
system.icache.ReadReq_miss_latency::total    699493000                       # number of ReadReq miss cycles
system.icache.ReadReq_accesses::.cpu.inst      1370173                       # number of ReadReq accesses(hits+misses)
system.icache.ReadReq_accesses::total         1370173                       # number of ReadReq accesses(hits+misses)
system.icache.ReadReq_miss_rate::.cpu.inst     0.010140                       # miss rate for ReadReq accesses
system.icache.ReadReq_miss_rate::total       0.010140                       # miss rate for ReadReq accesses
system.icache.ReadReq_avg_miss_latency::.cpu.inst 50348.592817                       # average ReadReq miss latency
system.icache.ReadReq_avg_miss_latency::total 50348.592817                       # average ReadReq miss latency
system.icache.ReadReq_mshr_misses::.cpu.inst        13893                       # number of ReadReq MSHR misses
system.icache.ReadReq_mshr_misses::total        13893                       # number of ReadReq MSHR misses
system.icache.ReadReq_mshr_miss_latency::.cpu.inst    671707000                       # number of ReadReq MSHR miss cycles
system.icache.ReadReq_mshr_miss_latency::total    671707000                       # number of ReadReq MSHR miss cycles
system.icache.ReadReq_mshr_miss_rate::.cpu.inst     0.010140                       # mshr miss rate for ReadReq accesses
system.icache.ReadReq_mshr_miss_rate::total     0.010140                       # mshr miss rate for ReadReq accesses
system.icache.ReadReq_avg_mshr_miss_latency::.cpu.inst 48348.592817                       # average ReadReq mshr miss latency
system.icache.ReadReq_avg_mshr_miss_latency::total 48348.592817                       # average ReadReq mshr miss latency
system.icache.power_state.pwrStateResidencyTicks::UNDEFINED   4941081000                       # Cumulative time (in ticks) in various power states
system.icache.tags.tagsinuse               252.753185                       # Cycle average of tags in use
system.icache.tags.total_refs                 1335370                       # Total number of references to valid blocks.
system.icache.tags.sampled_refs                 13637                       # Sample count of references to valid blocks.
system.icache.tags.avg_refs                 97.922564                       # Average number of references to valid blocks.
system.icache.tags.warmup_cycle                 80000                       # Cycle when the warmup percentage was hit.
system.icache.tags.occ_blocks::.cpu.inst   252.753185                       # Average occupied blocks per requestor
system.icache.tags.occ_percent::.cpu.inst     0.987317                       # Average percentage of cache occupancy
system.icache.tags.occ_percent::total        0.987317                       # Average percentage of cache occupancy
system.icache.tags.occ_task_id_blocks::1024          256                       # Occupied blocks per task id
system.icache.tags.age_task_id_blocks_1024::1          162                       # Occupied blocks per task id
system.icache.tags.age_task_id_blocks_1024::2           57                       # Occupied blocks per task id
system.icache.tags.age_task_id_blocks_1024::3           37                       # Occupied blocks per task id
system.icache.tags.occ_task_id_percent::1024            1                       # Percentage of cache occupancy per task id
system.icache.tags.tag_accesses               1384066                       # Number of tag accesses
system.icache.tags.data_accesses              1384066                       # Number of data accesses
system.icache.tags.power_state.pwrStateResidencyTicks::UNDEFINED   4941081000                       # Cumulative time (in ticks) in various power states
system.membus.trans_dist::ReadReq               18258                       # Transaction distribution
system.membus.trans_dist::ReadResp              18258                       # Transaction distribution
system.membus.trans_dist::WritebackDirty         4389                       # Transaction distribution
system.membus.pkt_count_system.dynamic_cache.mem_side::system.mem_ctrl.port        40905                       # Packet count per connected master and slave (bytes)
system.membus.pkt_count_system.dynamic_cache.mem_side::total        40905                       # Packet count per connected master and slave (bytes)
system.membus.pkt_count::total                  40905                       # Packet count per connected master and slave (bytes)
system.membus.pkt_size_system.dynamic_cache.mem_side::system.mem_ctrl.port      1449408                       # Cumulative packet size per connected master and slave (bytes)
system.membus.pkt_size_system.dynamic_cache.mem_side::total      1449408                       # Cumulative packet size per connected master and slave (bytes)
system.membus.pkt_size::total                 1449408                       # Cumulative packet size per connected master and slave (bytes)
system.membus.reqLayer2.occupancy            40203000                       # Layer occupancy (ticks)
system.membus.reqLayer2.utilization               0.8                       # Layer utilization (%)
system.membus.respLayer0.occupancy           97805750                       # Layer occupancy (ticks)
system.membus.respLayer0.utilization              2.0                       # Layer utilization (%)
system.membus.power_state.pwrStateResidencyTicks::UNDEFINED   4941081000                       # Cumulative time (in ticks) in various power states
system.mem_ctrl.bytes_read::.cpu.inst          504320                       # Number of bytes read from this memory
system.mem_ctrl.bytes_read::.cpu.data          664192                       # Number of bytes read from this memory
system.mem_ctrl.bytes_read::total             1168512                       # Number of bytes read from this memory
system.mem_ctrl.bytes_inst_read::.cpu.inst       504320                       # Number of instructions bytes read from this memory
system.mem_ctrl.bytes_inst_read::total         504320                       # Number of instructions bytes read from this memory
system.mem_ctrl.bytes_written::.writebacks       280896                       # Number of bytes written to this memory
system.mem_ctrl.bytes_written::total           280896                       # Number of bytes written to this memory
system.mem_ctrl.num_reads::.cpu.inst             7880                       # Number of read requests responded to by this memory
system.mem_ctrl.num_reads::.cpu.data            10378                       # Number of read requests responded to by this memory
system.mem_ctrl.num_reads::total                18258                       # Number of read requests responded to by this memory
system.mem_ctrl.num_writes::.writebacks          4389                       # Number of write requests responded to by this memory
system.mem_ctrl.num_writes::total                4389                       # Number of write requests responded to by this memory
system.mem_ctrl.bw_read::.cpu.inst          102066734                       # Total read bandwidth from this memory (bytes/s)
system.mem_ctrl.bw_read::.cpu.data          134422407                       # Total read bandwidth from this memory (bytes/s)
system.mem_ctrl.bw_read::total              236489141                       # Total read bandwidth from this memory (bytes/s)
system.mem_ctrl.bw_inst_read::.cpu.inst     102066734                       # Instruction read bandwidth from this memory (bytes/s)
system.mem_ctrl.bw_inst_read::total         102066734                       # Instruction read bandwidth from this memory (bytes/s)
system.mem_ctrl.bw_write::.writebacks        56849098                       # Write bandwidth from this memory (bytes/s)
system.mem_ctrl.bw_write::total              56849098                       # Write bandwidth from this memory (bytes/s)
system.mem_ctrl.bw_total::.writebacks        56849098                       # Total bandwidth to/from this memory (bytes/s)
system.mem_ctrl.bw_total::.cpu.inst         102066734                       # Total bandwidth to/from this memory (bytes/s)
system.mem_ctrl.bw_total::.cpu.data         134422407                       # Total bandwidth to/from this memory (bytes/s)
system.mem_ctrl.bw_total::total             293338239                       # Total bandwidth to/from this memory (bytes/s)
system.mem_ctrl.avgPriority_.writebacks::samples      4035.00                       # Average QoS priority value for accepted requests
system.mem_ctrl.avgPriority_.cpu.inst::samples      7880.00                       # Average QoS priority value for accepted requests
system.mem_ctrl.avgPriority_.cpu.data::samples     10099.00                       # Average QoS priority value for accepted requests
system.mem_ctrl.priorityMinLatency       0.000000018750                       # per QoS priority minimum request to response latency (s)
system.mem_ctrl.priorityMaxLatency       0.004244512750                       # per QoS priority maximum request to response latency (s)
system.mem_ctrl.numReadWriteTurnArounds           240                       # Number of turnarounds from READ to WRITE
system.mem_ctrl.numWriteReadTurnArounds           240                       # Number of turnarounds from WRITE to READ
system.mem_ctrl.numStayReadState                41430                       # Number of times bus staying in READ state
system.mem_ctrl.numStayWriteState                3783                       # Number of times bus staying in WRITE state
system.mem_ctrl.readReqs                        18258                       # Number of read requests accepted
system.mem_ctrl.writeReqs                        4389                       # Number of write requests accepted
system.mem_ctrl.readBursts                      18258                       # Number of DRAM read bursts, including those serviced by the write queue
system.mem_ctrl.writeBursts                      4389                       # Number of DRAM write bursts, including those merged in the write queue
system.mem_ctrl.servicedByWrQ                     279                       # Number of DRAM read bursts serviced by the write queue
system.mem_ctrl.mergedWrBursts                    354                       # Number of DRAM write bursts merged with an existing one
system.mem_ctrl.neitherReadNorWriteReqs             0                       # Number of requests that are neither read nor write
system.mem_ctrl.perBankRdBursts::0               1185                       # Per bank write bursts
system.mem_ctrl.perBankRdBursts::1               1943                       # Per bank write bursts
system.mem_ctrl.perBankRdBursts::2                898                       # Per bank write bursts
system.mem_ctrl.perBankRdBursts::3                876                       # Per bank write bursts
system.mem_ctrl.perBankRdBursts::4                373                       # Per bank write bursts
system.mem_ctrl.perBankRdBursts::5                366                       # Per bank write bursts
system.mem_ctrl.perBankRdBursts::6                731                       # Per bank write bursts
system.mem_ctrl.perBankRdBursts::7               1345                       # Per bank write bursts
system.mem_ctrl.perBankRdBursts::8               1081                       # Per bank write bursts
system.mem_ctrl.perBankRdBursts::9               1061                       # Per bank write bursts
system.mem_ctrl.perBankRdBursts::10               629                       # Per bank write bursts
system.mem_ctrl.perBankRdBursts::11              3042                       # Per bank write bursts
system.mem_ctrl.perBankRdBursts::12               865                       # Per bank write bursts
system.mem_ctrl.perBankRdBursts::13               707                       # Per bank write bursts
system.mem_ctrl.perBankRdBursts::14               257                       # Per bank write bursts
system.mem_ctrl.perBankRdBursts::15              2620                       # Per bank write bursts
system.mem_ctrl.perBankWrBursts::0                 68                       # Per bank write bursts
system.mem_ctrl.perBankWrBursts::1                377                       # Per bank write bursts
system.mem_ctrl.perBankWrBursts::2                298                       # Per bank write bursts
system.mem_ctrl.perBankWrBursts::3                258                       # Per bank write bursts
system.mem_ctrl.perBankWrBursts::4                 87                       # Per bank write bursts
system.mem_ctrl.perBankWrBursts::5                117                       # Per bank write bursts
system.mem_ctrl.perBankWrBursts::6                151                       # Per bank write bursts
system.mem_ctrl.perBankWrBursts::7                554                       # Per bank write bursts
system.mem_ctrl.perBankWrBursts::8                536                       # Per bank write bursts
system.mem_ctrl.perBankWrBursts::9                694                       # Per bank write bursts
system.mem_ctrl.perBankWrBursts::10               209                       # Per bank write bursts
system.mem_ctrl.perBankWrBursts::11               269                       # Per bank write bursts
system.mem_ctrl.perBankWrBursts::12               180                       # Per bank write bursts
system.mem_ctrl.perBankWrBursts::13                25                       # Per bank write bursts
system.mem_ctrl.perBankWrBursts::14                73                       # Per bank write bursts
system.mem_ctrl.perBankWrBursts::15               121                       # Per bank write bursts
system.mem_ctrl.avgRdQLen                        1.00                       # Average read queue length when enqueuing
system.mem_ctrl.avgWrQLen                       25.22                       # Average write queue length when enqueuing
system.mem_ctrl.totQLat                     195038750                       # Total ticks spent queuing
system.mem_ctrl.totBusLat                    89895000                       # Total ticks spent in databus transfers
system.mem_ctrl.totMemAccLat                532145000                       # Total ticks spent from burst creation until serviced by the DRAM
system.mem_ctrl.avgQLat                      10848.14                       # Average queueing delay per DRAM burst
system.mem_ctrl.avgBusLat                     5000.00                       # Average bus latency per DRAM burst
system.mem_ctrl.avgMemAccLat                 29598.14                       # Average memory access latency per DRAM burst
system.mem_ctrl.numRdRetry                          0                       # Number of times read queue was full causing retry
system.mem_ctrl.numWrRetry                          0                       # Number of times write queue was full causing retry
system.mem_ctrl.readRowHits                     11971                       # Number of row buffer hits during reads
system.mem_ctrl.writeRowHits                     3189                       # Number of row buffer hits during writes
system.mem_ctrl.readRowHitRate                  66.58                       # Row buffer hit rate for reads
system.mem_ctrl.writeRowHitRate                 79.03                       # Row buffer hit rate for writes
system.mem_ctrl.readPktSize::0                      0                       # Read request sizes (log2)
system.mem_ctrl.readPktSize::1                      0                       # Read request sizes (log2)
system.mem_ctrl.readPktSize::2                      0                       # Read request sizes (log2)
system.mem_ctrl.readPktSize::3                      0                       # Read request sizes (log2)
system.mem_ctrl.readPktSize::4                      0                       # Read request sizes (log2)
system.mem_ctrl.readPktSize::5                      0                       # Read request sizes (log2)
system.mem_ctrl.readPktSize::6                  18258                       # Read request sizes (log2)
system.mem_ctrl.writePktSize::0                     0                       # Write request sizes (log2)
system.mem_ctrl.writePktSize::1                     0                       # Write request sizes (log2)
system.mem_ctrl.writePktSize::2                     0                       # Write request sizes (log2)
system.mem_ctrl.writePktSize::3                     0                       # Write request sizes (log2)
system.mem_ctrl.writePktSize::4                     0                       # Write request sizes (log2)
system.mem_ctrl.writePktSize::5                     0                       # Write request sizes (log2)
system.mem_ctrl.writePktSize::6                  4389                       # Write request sizes (log2)
system.mem_ctrl.rdQLenPdf::0                    17968                       # What read queue length does an incoming req see
system.mem_ctrl.rdQLenPdf::1                       11                       # What read queue length does an incoming req see
system.mem_ctrl.rdQLenPdf::2                        0                       # What read queue length does an incoming req see
system.mem_ctrl.rdQLenPdf::3                        0                       # What read queue length does an incoming req see
system.mem_ctrl.rdQLenPdf::4                        0                       # What read queue length does an incoming req see
system.mem_ctrl.rdQLenPdf::5                        0                       # What read queue length does an incoming req see
system.mem_ctrl.rdQLenPdf::6                        0                       # What read queue length does an incoming req see
system.mem_ctrl.rdQLenPdf::7                        0                       # What read queue length does an incoming req see
system.mem_ctrl.rdQLenPdf::8                        0                       # What read queue length does an incoming req see
system.mem_ctrl.rdQLenPdf::9                        0                       # What read queue length does an incoming req see
system.mem_ctrl.rdQLenPdf::10                       0                       # What read queue length does an incoming req see
system.mem_ctrl.rdQLenPdf::11                       0                       # What read queue length does an incoming req see
system.mem_ctrl.rdQLenPdf::12                       0                       # What read queue length does an incoming req see
system.mem_ctrl.rdQLenPdf::13                       0                       # What read queue length does an incoming req see
system.mem_ctrl.rdQLenPdf::14                       0                       # What read queue length does an incoming req see
system.mem_ctrl.rdQLenPdf::15                       0                       # What read queue length does an incoming req see
system.mem_ctrl.rdQLenPdf::16                       0                       # What read queue length does an incoming req see
system.mem_ctrl.rdQLenPdf::17                       0                       # What read queue length does an incoming req see
system.mem_ctrl.rdQLenPdf::18                       0                       # What read queue length does an incoming req see
system.mem_ctrl.rdQLenPdf::19                       0                       # What read queue length does an incoming req see
system.mem_ctrl.rdQLenPdf::20                       0                       # What read queue length does an incoming req see
system.mem_ctrl.rdQLenPdf::21                       0                       # What read queue length does an incoming req see
system.mem_ctrl.rdQLenPdf::22                       0                       # What read queue length does an incoming req see
system.mem_ctrl.rdQLenPdf::23                       0                       # What read queue length does an incoming req see
system.mem_ctrl.rdQLenPdf::24                       0                       # What read queue length does an incoming req see
system.mem_ctrl.rdQLenPdf::25                       0                       # What read queue length does an incoming req see
system.mem_ctrl.rdQLenPdf::26                       0                       # What read queue length does an incoming req see
system.mem_ctrl.rdQLenPdf::27                       0                       # What read queue length does an incoming req see
system.mem_ctrl.rdQLenPdf::28                       0                       # What read queue length does an incoming req see
system.mem_ctrl.rdQLenPdf::29                       0                       # What read queue length does an incoming req see
system.mem_ctrl.rdQLenPdf::30                       0                       # What read queue length does an incoming req see
system.mem_ctrl.rdQLenPdf::31                       0                       # What read queue length does an incoming req see
system.mem_ctrl.wrQLenPdf::0                        1                       # What write queue length does an incoming req see
system.mem_ctrl.wrQLenPdf::1                        1                       # What write queue length does an incoming req see
system.mem_ctrl.wrQLenPdf::2                        1                       # What write queue length does an incoming req see
system.mem_ctrl.wrQLenPdf::3                        1                       # What write queue length does an incoming req see
system.mem_ctrl.wrQLenPdf::4                        1                       # What write queue length does an incoming req see
system.mem_ctrl.wrQLenPdf::5                        1                       # What write queue length does an incoming req see
system.mem_ctrl.wrQLenPdf::6                        1                       # What write queue length does an incoming req see
system.mem_ctrl.wrQLenPdf::7                        1                       # What write queue length does an incoming req see
system.mem_ctrl.wrQLenPdf::8                        1                       # What write queue length does an incoming req see
system.mem_ctrl.wrQLenPdf::9                        1                       # What write queue length does an incoming req see
system.mem_ctrl.wrQLenPdf::10                       1                       # What write queue length does an incoming req see
system.mem_ctrl.wrQLenPdf::11                       1                       # What write queue length does an incoming req see
system.mem_ctrl.wrQLenPdf::12                       1                       # What write queue length does an incoming req see
system.mem_ctrl.wrQLenPdf::13                       1                       # What write queue length does an incoming req see
system.mem_ctrl.wrQLenPdf::14                       1                       # What write queue length does an incoming req see
system.mem_ctrl.wrQLenPdf::15                      80                       # What write queue length does an incoming req see
system.mem_ctrl.wrQLenPdf::16                      93                       # What write queue length does an incoming req see
system.mem_ctrl.wrQLenPdf::17                     241                       # What write queue length does an incoming req see
system.mem_ctrl.wrQLenPdf::18                     241                       # What write queue length does an incoming req see
system.mem_ctrl.wrQLenPdf::19                     242                       # What write queue length does an incoming req see
system.mem_ctrl.wrQLenPdf::20                     240                       # What write queue length does an incoming req see
system.mem_ctrl.wrQLenPdf::21                     240                       # What write queue length does an incoming req see
system.mem_ctrl.wrQLenPdf::22                     240                       # What write queue length does an incoming req see
system.mem_ctrl.wrQLenPdf::23                     240                       # What write queue length does an incoming req see
system.mem_ctrl.wrQLenPdf::24                     241                       # What write queue length does an incoming req see
system.mem_ctrl.wrQLenPdf::25                     240                       # What write queue length does an incoming req see
system.mem_ctrl.wrQLenPdf::26                     240                       # What write queue length does an incoming req see
system.mem_ctrl.wrQLenPdf::27                     240                       # What write queue length does an incoming req see
system.mem_ctrl.wrQLenPdf::28                     241                       # What write queue length does an incoming req see
system.mem_ctrl.wrQLenPdf::29                     241                       # What write queue length does an incoming req see
system.mem_ctrl.wrQLenPdf::30                     240                       # What write queue length does an incoming req see
system.mem_ctrl.wrQLenPdf::31                     240                       # What write queue length does an incoming req see
system.mem_ctrl.wrQLenPdf::32                     240                       # What write queue length does an incoming req see
system.mem_ctrl.wrQLenPdf::33                       0                       # What write queue length does an incoming req see
system.mem_ctrl.wrQLenPdf::34                       0                       # What write queue length does an incoming req see
system.mem_ctrl.wrQLenPdf::35                       0                       # What write queue length does an incoming req see
system.mem_ctrl.wrQLenPdf::36                       0                       # What write queue length does an incoming req see
system.mem_ctrl.wrQLenPdf::37                       0                       # What write queue length does an incoming req see
system.mem_ctrl.wrQLenPdf::38                       0                       # What write queue length does an incoming req see
system.mem_ctrl.wrQLenPdf::39                       0                       # What write queue length does an incoming req see
system.mem_ctrl.wrQLenPdf::40                       0                       # What write queue length does an incoming req see
system.mem_ctrl.wrQLenPdf::41                       0                       # What write queue length does an incoming req see
system.mem_ctrl.wrQLenPdf::42                       0                       # What write queue length does an incoming req see
system.mem_ctrl.wrQLenPdf::43                       0                       # What write queue length does an incoming req see
system.mem_ctrl.wrQLenPdf::44                       0                       # What write queue length does an incoming req see
system.mem_ctrl.wrQLenPdf::45                       0                       # What write queue length does an incoming req see
system.mem_ctrl.wrQLenPdf::46                       0                       # What write queue length does an incoming req see
system.mem_ctrl.wrQLenPdf::47                       0                       # What write queue length does an incoming req see
system.mem_ctrl.wrQLenPdf::48                       0                       # What write queue length does an incoming req see
system.mem_ctrl.wrQLenPdf::49                       0                       # What write queue length does an incoming req see
system.mem_ctrl.wrQLenPdf::50                       0                       # What write queue length does an incoming req see
system.mem_ctrl.wrQLenPdf::51                       0                       # What write queue length does an incoming req see
system.mem_ctrl.wrQLenPdf::52                       0                       # What write queue length does an incoming req see
system.mem_ctrl.wrQLenPdf::53                       0                       # What write queue length does an incoming req see
system.mem_ctrl.wrQLenPdf::54                       0                       # What write queue length does an incoming req see
system.mem_ctrl.wrQLenPdf::55                       0                       # What write queue length does an incoming req see
system.mem_ctrl.wrQLenPdf::56                       0                       # What write queue length does an incoming req see
system.mem_ctrl.wrQLenPdf::57                       0                       # What write queue length does an incoming req see
system.mem_ctrl.wrQLenPdf::58                       0                       # What write queue length does an incoming req see
system.mem_ctrl.wrQLenPdf::59                       0                       # What write queue length does an incoming req see
system.mem_ctrl.wrQLenPdf::60                       0                       # What write queue length does an incoming req see
system.mem_ctrl.wrQLenPdf::61                       0                       # What write queue length does an incoming req see
system.mem_ctrl.wrQLenPdf::62                       0                       # What write queue length does an incoming req see
system.mem_ctrl.wrQLenPdf::63                       0                       # What write queue length does an incoming req see
system.mem_ctrl.bytesPerActivate::samples         6827                       # Bytes accessed per row activation
system.mem_ctrl.bytesPerActivate::mean     205.911821                       # Bytes accessed per row activation
system.mem_ctrl.bytesPerActivate::gmean    137.146439                       # Bytes accessed per row activation
system.mem_ctrl.bytesPerActivate::stdev    224.287682                       # Bytes accessed per row activation
system.mem_ctrl.bytesPerActivate::0-127          3047     44.63%     44.63% # Bytes accessed per row activation
system.mem_ctrl.bytesPerActivate::128-255         1886     27.63%     72.26% # Bytes accessed per row activation
system.mem_ctrl.bytesPerActivate::256-383          822     12.04%     84.30% # Bytes accessed per row activation
system.mem_ctrl.bytesPerActivate::384-511          371      5.43%     89.73% # Bytes accessed per row activation
system.mem_ctrl.bytesPerActivate::512-639          198      2.90%     92.63% # Bytes accessed per row activation
system.mem_ctrl.bytesPerActivate::640-767          128      1.87%     94.51% # Bytes accessed per row activation
system.mem_ctrl.bytesPerActivate::768-895          119      1.74%     96.25% # Bytes accessed per row activation
system.mem_ctrl.bytesPerActivate::896-1023           66      0.97%     97.22% # Bytes accessed per row activation
system.mem_ctrl.bytesPerActivate::1024-1151          190      2.78%    100.00% # Bytes accessed per row activation
system.mem_ctrl.bytesPerActivate::total          6827                       # Bytes accessed per row activation
system.mem_ctrl.rdPerTurnAround::samples          240                       # Reads before turning the bus around for writes
system.mem_ctrl.rdPerTurnAround::mean       74.858333                       # Reads before turning the bus around for writes
system.mem_ctrl.rdPerTurnAround::gmean      48.778572                       # Reads before turning the bus around for writes
system.mem_ctrl.rdPerTurnAround::stdev     179.505285                       # Reads before turning the bus around for writes
system.mem_ctrl.rdPerTurnAround::0-127            227     94.58%     94.58% # Reads before turning the bus around for writes
system.mem_ctrl.rdPerTurnAround::128-255            5      2.08%     96.67% # Reads before turning the bus around for writes
system.mem_ctrl.rdPerTurnAround::256-383            3      1.25%     97.92% # Reads before turning the bus around for writes
system.mem_ctrl.rdPerTurnAround::384-511            2      0.83%     98.75% # Reads before turning the bus around for writes
system.mem_ctrl.rdPerTurnAround::640-767            1      0.42%     99.17% # Reads before turning the bus around for writes
system.mem_ctrl.rdPerTurnAround::1152-1279            1      0.42%     99.58% # Reads before turning the bus around for writes
system.mem_ctrl.rdPerTurnAround::2304-2431            1      0.42%    100.00% # Reads before turning the bus around for writes
system.mem_ctrl.rdPerTurnAround::total            240                       # Reads before turning the bus around for writes
system.mem_ctrl.wrPerTurnAround::samples          240                       # Writes before turning the bus around for reads
system.mem_ctrl.wrPerTurnAround::mean       16.737500                       # Writes before turning the bus around for reads
system.mem_ctrl.wrPerTurnAround::gmean      16.710242                       # Writes before turning the bus around for reads
system.mem_ctrl.wrPerTurnAround::stdev       0.969110                       # Writes before turning the bus around for reads
system.mem_ctrl.wrPerTurnAround::16               147     61.25%     61.25% # Writes before turning the bus around for reads
system.mem_ctrl.wrPerTurnAround::17                14      5.83%     67.08% # Writes before turning the bus around for reads
system.mem_ctrl.wrPerTurnAround::18                74     30.83%     97.92% # Writes before turning the bus around for reads
system.mem_ctrl.wrPerTurnAround::19                 5      2.08%    100.00% # Writes before turning the bus around for reads
system.mem_ctrl.wrPerTurnAround::total            240                       # Writes before turning the bus around for reads
system.mem_ctrl.bytesReadDRAM                 1150656                       # Total number of bytes read from DRAM
system.mem_ctrl.bytesReadWrQ                    17856                       # Total number of bytes read from write queue
system.mem_ctrl.bytesWritten                   257088                       # Total number of bytes written to DRAM
system.mem_ctrl.bytesReadSys                  1168512                       # Total read bytes from the system interface side
system.mem_ctrl.bytesWrittenSys                280896                       # Total written bytes from the system interface side
system.mem_ctrl.avgRdBW                        232.88                       # Average DRAM read bandwidth in MiByte/s
system.mem_ctrl.avgWrBW                         52.03                       # Average achieved write bandwidth in MiByte/s
system.mem_ctrl.avgRdBWSys                     236.49                       # Average system read bandwidth in MiByte/s
system.mem_ctrl.avgWrBWSys                      56.85                       # Average system write bandwidth in MiByte/s
system.mem_ctrl.peakBW                       12800.00                       # Theoretical peak bandwidth in MiByte/s
system.mem_ctrl.busUtil                          2.23                       # Data bus utilization in percentage
system.mem_ctrl.busUtilRead                      1.82                       # Data bus utilization in percentage for reads
system.mem_ctrl.busUtilWrite                     0.41                       # Data bus utilization in percentage for writes
system.mem_ctrl.totGap                     4940971000                       # Total gap between requests
system.mem_ctrl.avgGap                      218173.31                       # Average gap between requests
system.mem_ctrl.masterReadBytes::.cpu.inst       504320                       # Per-master bytes read from memory
system.mem_ctrl.masterReadBytes::.cpu.data       646336                       # Per-master bytes read from memory
system.mem_ctrl.masterWriteBytes::.writebacks       257088                       # Per-master bytes write to memory
system.mem_ctrl.masterReadRate::.cpu.inst 102066733.979872018099                       # Per-master bytes read from memory rate (Bytes/sec)
system.mem_ctrl.masterReadRate::.cpu.data 130808622.647554248571                       # Per-master bytes read from memory rate (Bytes/sec)
system.mem_ctrl.masterWriteRate::.writebacks 52030719.593546435237                       # Per-master bytes write to memory rate (Bytes/sec)
system.mem_ctrl.masterReadAccesses::.cpu.inst         7880                       # Per-master read serviced memory accesses
system.mem_ctrl.masterReadAccesses::.cpu.data        10378                       # Per-master read serviced memory accesses
system.mem_ctrl.masterWriteAccesses::.writebacks         4389                       # Per-master write serviced memory accesses
system.mem_ctrl.masterReadTotalLat::.cpu.inst    243094250                       # Per-master read total memory access latency
system.mem_ctrl.masterReadTotalLat::.cpu.data    289050750                       # Per-master read total memory access latency
system.mem_ctrl.masterWriteTotalLat::.writebacks 122518699000                       # Per-master write total memory access latency
system.mem_ctrl.masterReadAvgLat::.cpu.inst     30849.52                       # Per-master read average memory access latency
system.mem_ctrl.masterReadAvgLat::.cpu.data     27852.26                       # Per-master read average memory access latency
system.mem_ctrl.masterWriteAvgLat::.writebacks  27914946.23                       # Per-master write average memory access latency
system.mem_ctrl.pageHitRate                     68.87                       # Row buffer hit rate, read and write combined
system.mem_ctrl.rank1.actEnergy              25332720                       # Energy for activate commands per rank (pJ)
system.mem_ctrl.rank1.preEnergy              13457070                       # Energy for precharge commands per rank (pJ)
system.mem_ctrl.rank1.readEnergy             73270680                       # Energy for read commands per rank (pJ)
system.mem_ctrl.rank1.writeEnergy            10998540                       # Energy for write commands per rank (pJ)
system.mem_ctrl.rank1.refreshEnergy      389681760.000000                       # Energy for refresh commands per rank (pJ)
system.mem_ctrl.rank1.actBackEnergy        2084312160                       # Energy for active background per rank (pJ)
system.mem_ctrl.rank1.preBackEnergy         142164960                       # Energy for precharge background per rank (pJ)
system.mem_ctrl.rank1.actPowerDownEnergy            0                       # Energy for active power-down per rank (pJ)
system.mem_ctrl.rank1.prePowerDownEnergy            0                       # Energy for precharge power-down per rank (pJ)
system.mem_ctrl.rank1.selfRefreshEnergy             0                       # Energy for self refresh per rank (pJ)
system.mem_ctrl.rank1.totalEnergy          2739217890                       # Total energy per rank (pJ)
system.mem_ctrl.rank1.averagePower         554.376237                       # Core power per rank (mW)
system.mem_ctrl.rank1.totalIdleTime                 0                       # Total Idle time Per DRAM Rank
system.mem_ctrl.rank1.memoryStateTime::IDLE    351785250                       # Time in different power states
system.mem_ctrl.rank1.memoryStateTime::REF    164840000                       # Time in different power states
system.mem_ctrl.rank1.memoryStateTime::SREF            0                       # Time in different power states
system.mem_ctrl.rank1.memoryStateTime::PRE_PDN            0                       # Time in different power states
system.mem_ctrl.rank1.memoryStateTime::ACT   4424455750                       # Time in different power states
system.mem_ctrl.rank1.memoryStateTime::ACT_PDN            0                       # Time in different power states
system.mem_ctrl.rank0.actEnergy              23476320                       # Energy for activate commands per rank (pJ)
system.mem_ctrl.rank0.preEnergy              12451395                       # Energy for precharge commands per rank (pJ)
system.mem_ctrl.rank0.readEnergy             55099380                       # Energy for read commands per rank (pJ)
system.mem_ctrl.rank0.writeEnergy             9970200                       # Energy for write commands per rank (pJ)
system.mem_ctrl.rank0.refreshEnergy      389681760.000000                       # Energy for refresh commands per rank (pJ)
system.mem_ctrl.rank0.actBackEnergy        1514834850                       # Energy for active background per rank (pJ)
system.mem_ctrl.rank0.preBackEnergy         621724800                       # Energy for precharge background per rank (pJ)
system.mem_ctrl.rank0.actPowerDownEnergy            0                       # Energy for active power-down per rank (pJ)
system.mem_ctrl.rank0.prePowerDownEnergy            0                       # Energy for precharge power-down per rank (pJ)
system.mem_ctrl.rank0.selfRefreshEnergy             0                       # Energy for self refresh per rank (pJ)
system.mem_ctrl.rank0.totalEnergy          2627238705                       # Total energy per rank (pJ)
system.mem_ctrl.rank0.averagePower         531.713345                       # Core power per rank (mW)
system.mem_ctrl.rank0.totalIdleTime                 0                       # Total Idle time Per DRAM Rank
system.mem_ctrl.rank0.memoryStateTime::IDLE   1601412250                       # Time in different power states
system.mem_ctrl.rank0.memoryStateTime::REF    164840000                       # Time in different power states
system.mem_ctrl.rank0.memoryStateTime::SREF            0                       # Time in different power states
system.mem_ctrl.rank0.memoryStateTime::PRE_PDN            0                       # Time in different power states
system.mem_ctrl.rank0.memoryStateTime::ACT   3174828750                       # Time in different power states
system.mem_ctrl.rank0.memoryStateTime::ACT_PDN            0                       # Time in different power states
system.mem_ctrl.power_state.pwrStateResidencyTicks::UNDEFINED   4941081000                       # Cumulative time (in ticks) in various power states
system.cache_medium.blocked_cycles::no_mshrs            0                       # number of cycles access was blocked
system.cache_medium.blocked_cycles::no_targets            0                       # number of cycles access was blocked
system.cache_medium.blocked::no_mshrs               0                       # number of cycles access was blocked
system.cache_medium.blocked::no_targets             0                       # number of cycles access was blocked
system.cache_medium.avg_blocked_cycles::no_mshrs          nan                       # average number of cycles each access was blocked
system.cache_medium.avg_blocked_cycles::no_targets          nan                       # average number of cycles each access was blocked
system.cache_medium.replacements                    0                       # number of replacements
system.cache_medium.power_state.pwrStateResidencyTicks::UNDEFINED   4941081000                       # Cumulative time (in ticks) in various power states
system.cache_medium.tags.tagsinuse                  0                       # Cycle average of tags in use
system.cache_medium.tags.total_refs                 0                       # Total number of references to valid blocks.
system.cache_medium.tags.sampled_refs               0                       # Sample count of references to valid blocks.
system.cache_medium.tags.avg_refs                 nan                       # Average number of references to valid blocks.
system.cache_medium.tags.warmup_cycle               0                       # Cycle when the warmup percentage was hit.
system.cache_medium.tags.tag_accesses               0                       # Number of tag accesses
system.cache_medium.tags.data_accesses              0                       # Number of data accesses
system.cache_medium.tags.power_state.pwrStateResidencyTicks::UNDEFINED   4941081000                       # Cumulative time (in ticks) in various power states
system.clk_domain.clock                          1000                       # Clock period in ticks
system.clk_domain.voltage_domain.voltage            1                       # Voltage in Volts
system.dcache.demand_hits::.cpu.data           322523                       # number of demand (read+write) hits
system.dcache.demand_hits::total               322523                       # number of demand (read+write) hits
system.dcache.overall_hits::.cpu.data          328108                       # number of overall hits
system.dcache.overall_hits::total              328108                       # number of overall hits
system.dcache.demand_misses::.cpu.data          12247                       # number of demand (read+write) misses
system.dcache.demand_misses::total              12247                       # number of demand (read+write) misses
system.dcache.overall_misses::.cpu.data         14930                       # number of overall misses
system.dcache.overall_misses::total             14930                       # number of overall misses
system.dcache.demand_miss_latency::.cpu.data    680261000                       # number of demand (read+write) miss cycles
system.dcache.demand_miss_latency::total    680261000                       # number of demand (read+write) miss cycles
system.dcache.overall_miss_latency::.cpu.data    835491000                       # number of overall miss cycles
system.dcache.overall_miss_latency::total    835491000                       # number of overall miss cycles
system.dcache.demand_accesses::.cpu.data       334770                       # number of demand (read+write) accesses
system.dcache.demand_accesses::total           334770                       # number of demand (read+write) accesses
system.dcache.overall_accesses::.cpu.data       343038                       # number of overall (read+write) accesses
system.dcache.overall_accesses::total          343038                       # number of overall (read+write) accesses
system.dcache.demand_miss_rate::.cpu.data     0.036583                       # miss rate for demand accesses
system.dcache.demand_miss_rate::total        0.036583                       # miss rate for demand accesses
system.dcache.overall_miss_rate::.cpu.data     0.043523                       # miss rate for overall accesses
system.dcache.overall_miss_rate::total       0.043523                       # miss rate for overall accesses
system.dcache.demand_avg_miss_latency::.cpu.data 55545.113089                       # average overall miss latency
system.dcache.demand_avg_miss_latency::total 55545.113089                       # average overall miss latency
system.dcache.overall_avg_miss_latency::.cpu.data 55960.549230                       # average overall miss latency
system.dcache.overall_avg_miss_latency::total 55960.549230                       # average overall miss latency
system.dcache.blocked_cycles::no_mshrs              0                       # number of cycles access was blocked
system.dcache.blocked_cycles::no_targets            0                       # number of cycles access was blocked
system.dcache.blocked::no_mshrs                     0                       # number of cycles access was blocked
system.dcache.blocked::no_targets                   0                       # number of cycles access was blocked
system.dcache.avg_blocked_cycles::no_mshrs          nan                       # average number of cycles each access was blocked
system.dcache.avg_blocked_cycles::no_targets          nan                       # average number of cycles each access was blocked
system.dcache.writebacks::.writebacks            5457                       # number of writebacks
system.dcache.writebacks::total                  5457                       # number of writebacks
system.dcache.demand_mshr_misses::.cpu.data        12247                       # number of demand (read+write) MSHR misses
system.dcache.demand_mshr_misses::total         12247                       # number of demand (read+write) MSHR misses
system.dcache.overall_mshr_misses::.cpu.data        14930                       # number of overall MSHR misses
system.dcache.overall_mshr_misses::total        14930                       # number of overall MSHR misses
system.dcache.demand_mshr_miss_latency::.cpu.data    655769000                       # number of demand (read+write) MSHR miss cycles
system.dcache.demand_mshr_miss_latency::total    655769000                       # number of demand (read+write) MSHR miss cycles
system.dcache.overall_mshr_miss_latency::.cpu.data    805633000                       # number of overall MSHR miss cycles
system.dcache.overall_mshr_miss_latency::total    805633000                       # number of overall MSHR miss cycles
system.dcache.demand_mshr_miss_rate::.cpu.data     0.036583                       # mshr miss rate for demand accesses
system.dcache.demand_mshr_miss_rate::total     0.036583                       # mshr miss rate for demand accesses
system.dcache.overall_mshr_miss_rate::.cpu.data     0.043523                       # mshr miss rate for overall accesses
system.dcache.overall_mshr_miss_rate::total     0.043523                       # mshr miss rate for overall accesses
system.dcache.demand_avg_mshr_miss_latency::.cpu.data 53545.276394                       # average overall mshr miss latency
system.dcache.demand_avg_mshr_miss_latency::total 53545.276394                       # average overall mshr miss latency
system.dcache.overall_avg_mshr_miss_latency::.cpu.data 53960.683188                       # average overall mshr miss latency
system.dcache.overall_avg_mshr_miss_latency::total 53960.683188                       # average overall mshr miss latency
system.dcache.replacements                      14673                       # number of replacements
system.dcache.ReadReq_hits::.cpu.data          247444                       # number of ReadReq hits
system.dcache.ReadReq_hits::total              247444                       # number of ReadReq hits
system.dcache.ReadReq_misses::.cpu.data          7773                       # number of ReadReq misses
system.dcache.ReadReq_misses::total              7773                       # number of ReadReq misses
system.dcache.ReadReq_miss_latency::.cpu.data    420165000                       # number of ReadReq miss cycles
system.dcache.ReadReq_miss_latency::total    420165000                       # number of ReadReq miss cycles
system.dcache.ReadReq_accesses::.cpu.data       255217                       # number of ReadReq accesses(hits+misses)
system.dcache.ReadReq_accesses::total          255217                       # number of ReadReq accesses(hits+misses)
system.dcache.ReadReq_miss_rate::.cpu.data     0.030456                       # miss rate for ReadReq accesses
system.dcache.ReadReq_miss_rate::total       0.030456                       # miss rate for ReadReq accesses
system.dcache.ReadReq_avg_miss_latency::.cpu.data 54054.419143                       # average ReadReq miss latency
system.dcache.ReadReq_avg_miss_latency::total 54054.419143                       # average ReadReq miss latency
system.dcache.ReadReq_mshr_misses::.cpu.data         7773                       # number of ReadReq MSHR misses
system.dcache.ReadReq_mshr_misses::total         7773                       # number of ReadReq MSHR misses
system.dcache.ReadReq_mshr_miss_latency::.cpu.data    404619000                       # number of ReadReq MSHR miss cycles
system.dcache.ReadReq_mshr_miss_latency::total    404619000                       # number of ReadReq MSHR miss cycles
system.dcache.ReadReq_mshr_miss_rate::.cpu.data     0.030456                       # mshr miss rate for ReadReq accesses
system.dcache.ReadReq_mshr_miss_rate::total     0.030456                       # mshr miss rate for ReadReq accesses
system.dcache.ReadReq_avg_mshr_miss_latency::.cpu.data 52054.419143                       # average ReadReq mshr miss latency
system.dcache.ReadReq_avg_mshr_miss_latency::total 52054.419143                       # average ReadReq mshr miss latency
system.dcache.WriteReq_hits::.cpu.data          75079                       # number of WriteReq hits
system.dcache.WriteReq_hits::total              75079                       # number of WriteReq hits
system.dcache.WriteReq_misses::.cpu.data         4474                       # number of WriteReq misses
system.dcache.WriteReq_misses::total             4474                       # number of WriteReq misses
system.dcache.WriteReq_miss_latency::.cpu.data    260096000                       # number of WriteReq miss cycles
system.dcache.WriteReq_miss_latency::total    260096000                       # number of WriteReq miss cycles
system.dcache.WriteReq_accesses::.cpu.data        79553                       # number of WriteReq accesses(hits+misses)
system.dcache.WriteReq_accesses::total          79553                       # number of WriteReq accesses(hits+misses)
system.dcache.WriteReq_miss_rate::.cpu.data     0.056239                       # miss rate for WriteReq accesses
system.dcache.WriteReq_miss_rate::total      0.056239                       # miss rate for WriteReq accesses
system.dcache.WriteReq_avg_miss_latency::.cpu.data 58135.002235                       # average WriteReq miss latency
system.dcache.WriteReq_avg_miss_latency::total 58135.002235                       # average WriteReq miss latency
system.dcache.WriteReq_mshr_misses::.cpu.data         4474                       # number of WriteReq MSHR misses
system.dcache.WriteReq_mshr_misses::total         4474                       # number of WriteReq MSHR misses
system.dcache.WriteReq_mshr_miss_latency::.cpu.data    251150000                       # number of WriteReq MSHR miss cycles
system.dcache.WriteReq_mshr_miss_latency::total    251150000                       # number of WriteReq MSHR miss cycles
system.dcache.WriteReq_mshr_miss_rate::.cpu.data     0.056239                       # mshr miss rate for WriteReq accesses
system.dcache.WriteReq_mshr_miss_rate::total     0.056239                       # mshr miss rate for WriteReq accesses
system.dcache.WriteReq_avg_mshr_miss_latency::.cpu.data 56135.449262                       # average WriteReq mshr miss latency
system.dcache.WriteReq_avg_mshr_miss_latency::total 56135.449262                       # average WriteReq mshr miss latency
system.dcache.SoftPFReq_hits::.cpu.data          5585                       # number of SoftPFReq hits
system.dcache.SoftPFReq_hits::total              5585                       # number of SoftPFReq hits
system.dcache.SoftPFReq_misses::.cpu.data         2683                       # number of SoftPFReq misses
system.dcache.SoftPFReq_misses::total            2683                       # number of SoftPFReq misses
system.dcache.SoftPFReq_miss_latency::.cpu.data    155230000                       # number of SoftPFReq miss cycles
system.dcache.SoftPFReq_miss_latency::total    155230000                       # number of SoftPFReq miss cycles
system.dcache.SoftPFReq_accesses::.cpu.data         8268                       # number of SoftPFReq accesses(hits+misses)
system.dcache.SoftPFReq_accesses::total          8268                       # number of SoftPFReq accesses(hits+misses)
system.dcache.SoftPFReq_miss_rate::.cpu.data     0.324504                       # miss rate for SoftPFReq accesses
system.dcache.SoftPFReq_miss_rate::total     0.324504                       # miss rate for SoftPFReq accesses
system.dcache.SoftPFReq_avg_miss_latency::.cpu.data 57856.876631                       # average SoftPFReq miss latency
system.dcache.SoftPFReq_avg_miss_latency::total 57856.876631                       # average SoftPFReq miss latency
system.dcache.SoftPFReq_mshr_misses::.cpu.data         2683                       # number of SoftPFReq MSHR misses
system.dcache.SoftPFReq_mshr_misses::total         2683                       # number of SoftPFReq MSHR misses
system.dcache.SoftPFReq_mshr_miss_latency::.cpu.data    149864000                       # number of SoftPFReq MSHR miss cycles
system.dcache.SoftPFReq_mshr_miss_latency::total    149864000                       # number of SoftPFReq MSHR miss cycles
system.dcache.SoftPFReq_mshr_miss_rate::.cpu.data     0.324504                       # mshr miss rate for SoftPFReq accesses
system.dcache.SoftPFReq_mshr_miss_rate::total     0.324504                       # mshr miss rate for SoftPFReq accesses
system.dcache.SoftPFReq_avg_mshr_miss_latency::.cpu.data 55856.876631                       # average SoftPFReq mshr miss latency
system.dcache.SoftPFReq_avg_mshr_miss_latency::total 55856.876631                       # average SoftPFReq mshr miss latency
system.dcache.power_state.pwrStateResidencyTicks::UNDEFINED   4941081000                       # Cumulative time (in ticks) in various power states
system.dcache.tags.tagsinuse               247.875689                       # Cycle average of tags in use
system.dcache.tags.total_refs                  337710                       # Total number of references to valid blocks.
system.dcache.tags.sampled_refs                 14673                       # Sample count of references to valid blocks.
system.dcache.tags.avg_refs                 23.015743                       # Average number of references to valid blocks.
system.dcache.tags.warmup_cycle                167000                       # Cycle when the warmup percentage was hit.
system.dcache.tags.occ_blocks::.cpu.data   247.875689                       # Average occupied blocks per requestor
system.dcache.tags.occ_percent::.cpu.data     0.968264                       # Average percentage of cache occupancy
system.dcache.tags.occ_percent::total        0.968264                       # Average percentage of cache occupancy
system.dcache.tags.occ_task_id_blocks::1024          256                       # Occupied blocks per task id
system.dcache.tags.age_task_id_blocks_1024::0          100                       # Occupied blocks per task id
system.dcache.tags.age_task_id_blocks_1024::1           85                       # Occupied blocks per task id
system.dcache.tags.age_task_id_blocks_1024::2           71                       # Occupied blocks per task id
system.dcache.tags.occ_task_id_percent::1024            1                       # Percentage of cache occupancy per task id
system.dcache.tags.tag_accesses                357967                       # Number of tag accesses
system.dcache.tags.data_accesses               357967                       # Number of data accesses
system.dcache.tags.power_state.pwrStateResidencyTicks::UNDEFINED   4941081000                       # Cumulative time (in ticks) in various power states
system.cache_large.blocked_cycles::no_mshrs            0                       # number of cycles access was blocked
system.cache_large.blocked_cycles::no_targets            0                       # number of cycles access was blocked
system.cache_large.blocked::no_mshrs                0                       # number of cycles access was blocked
system.cache_large.blocked::no_targets              0                       # number of cycles access was blocked
system.cache_large.avg_blocked_cycles::no_mshrs          nan                       # average number of cycles each access was blocked
system.cache_large.avg_blocked_cycles::no_targets          nan                       # average number of cycles each access was blocked
system.cache_large.replacements                     0                       # number of replacements
system.cache_large.power_state.pwrStateResidencyTicks::UNDEFINED   4941081000                       # Cumulative time (in ticks) in various power states
system.cache_large.tags.tagsinuse                   0                       # Cycle average of tags in use
system.cache_large.tags.total_refs                  0                       # Total number of references to valid blocks.
system.cache_large.tags.sampled_refs                0                       # Sample count of references to valid blocks.
system.cache_large.tags.avg_refs                  nan                       # Average number of references to valid blocks.
system.cache_large.tags.warmup_cycle                0                       # Cycle when the warmup percentage was hit.
system.cache_large.tags.tag_accesses                0                       # Number of tag accesses
system.cache_large.tags.data_accesses               0                       # Number of data accesses
system.cache_large.tags.power_state.pwrStateResidencyTicks::UNDEFINED   4941081000                       # Cumulative time (in ticks) in various power states
system.l2cache.demand_hits::.cpu.inst            6013                       # number of demand (read+write) hits
system.l2cache.demand_hits::.cpu.data            4551                       # number of demand (read+write) hits
[...]
system.dcache.tags.age_task_id_blocks_1024::2          164                       # Occupied blocks per task id
system.dcache.tags.age_task_id_blocks_1024::3           70                       # Occupied blocks per task id
system.dcache.tags.occ_task_id_percent::1024            1                       # Percentage of cache occupancy per task id
system.dcache.tags.tag_accesses               2147852                       # Number of tag accesses
system.dcache.tags.data_accesses              2147852                       # Number of data accesses
system.dcache.tags.power_state.pwrStateResidencyTicks::UNDEFINED  22365807000                       # Cumulative time (in ticks) in various power states
system.cache_large.blocked_cycles::no_mshrs            0                       # number of cycles access was blocked
system.cache_large.blocked_cycles::no_targets            0                       # number of cycles access was blocked
system.cache_large.blocked::no_mshrs                0                       # number of cycles access was blocked
system.cache_large.blocked::no_targets              0                       # number of cycles access was blocked
system.cache_large.avg_blocked_cycles::no_mshrs          nan                       # average number of cycles each access was blocked
system.cache_large.avg_blocked_cycles::no_targets          nan                       # average number of cycles each access was blocked
system.cache_large.replacements                     0                       # number of replacements
system.cache_large.power_state.pwrStateResidencyTicks::UNDEFINED  22365807000                       # Cumulative time (in ticks) in various power states
system.cache_large.tags.tagsinuse                   0                       # Cycle average of tags in use
system.cache_large.tags.total_refs                  0                       # Total number of references to valid blocks.
system.cache_large.tags.sampled_refs                0                       # Sample count of references to valid blocks.
system.cache_large.tags.avg_refs                  nan                       # Average number of references to valid blocks.
system.cache_large.tags.warmup_cycle                0                       # Cycle when the warmup percentage was hit.
system.cache_large.tags.tag_accesses                0                       # Number of tag accesses
system.cache_large.tags.data_accesses               0                       # Number of data accesses
system.cache_large.tags.power_state.pwrStateResidencyTicks::UNDEFINED  22365807000                       # Cumulative time (in ticks) in various power states
system.l2cache.demand_hits::.cpu.inst            7357                       # number of demand (read+write) hits
system.l2cache.demand_hits::.cpu.data            9354                       # number of demand (read+write) hits
system.l2cache.demand_hits::total               16711                       # number of demand (read+write) hits
system.l2cache.overall_hits::.cpu.inst           7357                       # number of overall hits
system.l2cache.overall_hits::.cpu.data           9354                       # number of overall hits
system.l2cache.overall_hits::total              16711                       # number of overall hits
system.l2cache.demand_misses::.cpu.inst         13936                       # number of demand (read+write) misses
system.l2cache.demand_misses::.cpu.data         57026                       # number of demand (read+write) misses
system.l2cache.demand_misses::total             70962                       # number of demand (read+write) misses
system.l2cache.overall_misses::.cpu.inst        13936                       # number of overall misses
system.l2cache.overall_misses::.cpu.data        57026                       # number of overall misses
system.l2cache.overall_misses::total            70962                       # number of overall misses
system.l2cache.demand_miss_latency::.cpu.inst    994972000                       # number of demand (read+write) miss cycles
system.l2cache.demand_miss_latency::.cpu.data   3792597000                       # number of demand (read+write) miss cycles
system.l2cache.demand_miss_latency::total   4787569000                       # number of demand (read+write) miss cycles
system.l2cache.overall_miss_latency::.cpu.inst    994972000                       # number of overall miss cycles
system.l2cache.overall_miss_latency::.cpu.data   3792597000                       # number of overall miss cycles
system.l2cache.overall_miss_latency::total   4787569000                       # number of overall miss cycles
system.l2cache.demand_accesses::.cpu.inst        21293                       # number of demand (read+write) accesses
system.l2cache.demand_accesses::.cpu.data        66380                       # number of demand (read+write) accesses
system.l2cache.demand_accesses::total           87673                       # number of demand (read+write) accesses
system.l2cache.overall_accesses::.cpu.inst        21293                       # number of overall (read+write) accesses
system.l2cache.overall_accesses::.cpu.data        66380                       # number of overall (read+write) accesses
system.l2cache.overall_accesses::total          87673                       # number of overall (read+write) accesses
system.l2cache.demand_miss_rate::.cpu.inst     0.654487                       # miss rate for demand accesses
system.l2cache.demand_miss_rate::.cpu.data     0.859084                       # miss rate for demand accesses
system.l2cache.demand_miss_rate::total       0.809394                       # miss rate for demand accesses
system.l2cache.overall_miss_rate::.cpu.inst     0.654487                       # miss rate for overall accesses
system.l2cache.overall_miss_rate::.cpu.data     0.859084                       # miss rate for overall accesses
system.l2cache.overall_miss_rate::total      0.809394                       # miss rate for overall accesses
system.l2cache.demand_avg_miss_latency::.cpu.inst 71395.809414                       # average overall miss latency
system.l2cache.demand_avg_miss_latency::.cpu.data 66506.453197                       # average overall miss latency
system.l2cache.demand_avg_miss_latency::total 67466.658211                       # average overall miss latency
system.l2cache.overall_avg_miss_latency::.cpu.inst 71395.809414                       # average overall miss latency
system.l2cache.overall_avg_miss_latency::.cpu.data 66506.453197                       # average overall miss latency
system.l2cache.overall_avg_miss_latency::total 67466.658211                       # average overall miss latency
system.l2cache.blocked_cycles::no_mshrs             0                       # number of cycles access was blocked
system.l2cache.blocked_cycles::no_targets            0                       # number of cycles access was blocked
system.l2cache.blocked::no_mshrs                    0                       # number of cycles access was blocked
system.l2cache.blocked::no_targets                  0                       # number of cycles access was blocked
system.l2cache.avg_blocked_cycles::no_mshrs          nan                       # average number of cycles each access was blocked
system.l2cache.avg_blocked_cycles::no_targets          nan                       # average number of cycles each access was blocked
system.l2cache.writebacks::.writebacks          11659                       # number of writebacks
system.l2cache.writebacks::total                11659                       # number of writebacks
system.l2cache.demand_mshr_misses::.cpu.inst        13936                       # number of demand (read+write) MSHR misses
system.l2cache.demand_mshr_misses::.cpu.data        57026                       # number of demand (read+write) MSHR misses
system.l2cache.demand_mshr_misses::total        70962                       # number of demand (read+write) MSHR misses
system.l2cache.overall_mshr_misses::.cpu.inst        13936                       # number of overall MSHR misses
system.l2cache.overall_mshr_misses::.cpu.data        57026                       # number of overall MSHR misses
system.l2cache.overall_mshr_misses::total        70962                       # number of overall MSHR misses
system.l2cache.demand_mshr_miss_latency::.cpu.inst    967100000                       # number of demand (read+write) MSHR miss cycles
system.l2cache.demand_mshr_miss_latency::.cpu.data   3678545000                       # number of demand (read+write) MSHR miss cycles
system.l2cache.demand_mshr_miss_latency::total   4645645000                       # number of demand (read+write) MSHR miss cycles
system.l2cache.overall_mshr_miss_latency::.cpu.inst    967100000                       # number of overall MSHR miss cycles
system.l2cache.overall_mshr_miss_latency::.cpu.data   3678545000                       # number of overall MSHR miss cycles
system.l2cache.overall_mshr_miss_latency::total   4645645000                       # number of overall MSHR miss cycles
system.l2cache.demand_mshr_miss_rate::.cpu.inst     0.654487                       # mshr miss rate for demand accesses
system.l2cache.demand_mshr_miss_rate::.cpu.data     0.859084                       # mshr miss rate for demand accesses
system.l2cache.demand_mshr_miss_rate::total     0.809394                       # mshr miss rate for demand accesses
system.l2cache.overall_mshr_miss_rate::.cpu.inst     0.654487                       # mshr miss rate for overall accesses
system.l2cache.overall_mshr_miss_rate::.cpu.data     0.859084                       # mshr miss rate for overall accesses
system.l2cache.overall_mshr_miss_rate::total     0.809394                       # mshr miss rate for overall accesses
system.l2cache.demand_avg_mshr_miss_latency::.cpu.inst 69395.809414                       # average overall mshr miss latency
system.l2cache.demand_avg_mshr_miss_latency::.cpu.data 64506.453197                       # average overall mshr miss latency
system.l2cache.demand_avg_mshr_miss_latency::total 65466.658211                       # average overall mshr miss latency
system.l2cache.overall_avg_mshr_miss_latency::.cpu.inst 69395.809414                       # average overall mshr miss latency
system.l2cache.overall_avg_mshr_miss_latency::.cpu.data 64506.453197                       # average overall mshr miss latency
system.l2cache.overall_avg_mshr_miss_latency::total 65466.658211                       # average overall mshr miss latency
system.l2cache.replacements                     78266                       # number of replacements
system.l2cache.ReadReq_hits::.cpu.inst           7357                       # number of ReadReq hits
system.l2cache.ReadReq_hits::.cpu.data           9354                       # number of ReadReq hits
system.l2cache.ReadReq_hits::total              16711                       # number of ReadReq hits
system.l2cache.ReadReq_misses::.cpu.inst        13936                       # number of ReadReq misses
system.l2cache.ReadReq_misses::.cpu.data        57026                       # number of ReadReq misses
system.l2cache.ReadReq_misses::total            70962                       # number of ReadReq misses
system.l2cache.ReadReq_miss_latency::.cpu.inst    994972000                       # number of ReadReq miss cycles
system.l2cache.ReadReq_miss_latency::.cpu.data   3792597000                       # number of ReadReq miss cycles
system.l2cache.ReadReq_miss_latency::total   4787569000                       # number of ReadReq miss cycles
system.l2cache.ReadReq_accesses::.cpu.inst        21293                       # number of ReadReq accesses(hits+misses)
system.l2cache.ReadReq_accesses::.cpu.data        66380                       # number of ReadReq accesses(hits+misses)
system.l2cache.ReadReq_accesses::total          87673                       # number of ReadReq accesses(hits+misses)
system.l2cache.ReadReq_miss_rate::.cpu.inst     0.654487                       # miss rate for ReadReq accesses
system.l2cache.ReadReq_miss_rate::.cpu.data     0.859084                       # miss rate for ReadReq accesses
system.l2cache.ReadReq_miss_rate::total      0.809394                       # miss rate for ReadReq accesses
system.l2cache.ReadReq_avg_miss_latency::.cpu.inst 71395.809414                       # average ReadReq miss latency
system.l2cache.ReadReq_avg_miss_latency::.cpu.data 66506.453197                       # average ReadReq miss latency
system.l2cache.ReadReq_avg_miss_latency::total 67466.658211                       # average ReadReq miss latency
system.l2cache.ReadReq_mshr_misses::.cpu.inst        13936                       # number of ReadReq MSHR misses
system.l2cache.ReadReq_mshr_misses::.cpu.data        57026                       # number of ReadReq MSHR misses
system.l2cache.ReadReq_mshr_misses::total        70962                       # number of ReadReq MSHR misses
system.l2cache.ReadReq_mshr_miss_latency::.cpu.inst    967100000                       # number of ReadReq MSHR miss cycles
system.l2cache.ReadReq_mshr_miss_latency::.cpu.data   3678545000                       # number of ReadReq MSHR miss cycles
system.l2cache.ReadReq_mshr_miss_latency::total   4645645000                       # number of ReadReq MSHR miss cycles
system.l2cache.ReadReq_mshr_miss_rate::.cpu.inst     0.654487                       # mshr miss rate for ReadReq accesses
system.l2cache.ReadReq_mshr_miss_rate::.cpu.data     0.859084                       # mshr miss rate for ReadReq accesses
system.l2cache.ReadReq_mshr_miss_rate::total     0.809394                       # mshr miss rate for ReadReq accesses
system.l2cache.ReadReq_avg_mshr_miss_latency::.cpu.inst 69395.809414                       # average ReadReq mshr miss latency
system.l2cache.ReadReq_avg_mshr_miss_latency::.cpu.data 64506.453197                       # average ReadReq mshr miss latency
system.l2cache.ReadReq_avg_mshr_miss_latency::total 65466.658211                       # average ReadReq mshr miss latency
system.l2cache.WritebackDirty_hits::.writebacks        14019                       # number of WritebackDirty hits
system.l2cache.WritebackDirty_hits::total        14019                       # number of WritebackDirty hits
system.l2cache.WritebackDirty_accesses::.writebacks        14019                       # number of WritebackDirty accesses(hits+misses)
system.l2cache.WritebackDirty_accesses::total        14019                       # number of WritebackDirty accesses(hits+misses)
system.l2cache.power_state.pwrStateResidencyTicks::UNDEFINED  22365807000                       # Cumulative time (in ticks) in various power states
system.l2cache.tags.tagsinuse              509.611057                       # Cycle average of tags in use
system.l2cache.tags.total_refs                 101692                       # Total number of references to valid blocks.
system.l2cache.tags.sampled_refs                78778                       # Sample count of references to valid blocks.
system.l2cache.tags.avg_refs                 1.290868                       # Average number of references to valid blocks.
system.l2cache.tags.warmup_cycle                76000                       # Cycle when the warmup percentage was hit.
system.l2cache.tags.occ_blocks::.writebacks   102.360116                       # Average occupied blocks per requestor
system.l2cache.tags.occ_blocks::.cpu.inst    64.177643                       # Average occupied blocks per requestor
system.l2cache.tags.occ_blocks::.cpu.data   343.073299                       # Average occupied blocks per requestor
system.l2cache.tags.occ_percent::.writebacks     0.199922                       # Average percentage of cache occupancy
system.l2cache.tags.occ_percent::.cpu.inst     0.125347                       # Average percentage of cache occupancy
system.l2cache.tags.occ_percent::.cpu.data     0.670065                       # Average percentage of cache occupancy
system.l2cache.tags.occ_percent::total       0.995334                       # Average percentage of cache occupancy
system.l2cache.tags.occ_task_id_blocks::1024          512                       # Occupied blocks per task id
system.l2cache.tags.age_task_id_blocks_1024::0            4                       # Occupied blocks per task id
system.l2cache.tags.age_task_id_blocks_1024::1           18                       # Occupied blocks per task id
system.l2cache.tags.age_task_id_blocks_1024::2          173                       # Occupied blocks per task id
system.l2cache.tags.age_task_id_blocks_1024::3          317                       # Occupied blocks per task id
system.l2cache.tags.occ_task_id_percent::1024            1                       # Percentage of cache occupancy per task id
system.l2cache.tags.tag_accesses               180470                       # Number of tag accesses
system.l2cache.tags.data_accesses              180470                       # Number of data accesses
system.l2cache.tags.power_state.pwrStateResidencyTicks::UNDEFINED  22365807000                       # Cumulative time (in ticks) in various power states
system.l2bar.trans_dist::ReadReq                87673                       # Transaction distribution
system.l2bar.trans_dist::ReadResp               87673                       # Transaction distribution
system.l2bar.trans_dist::WritebackDirty         14019                       # Transaction distribution
system.l2bar.pkt_count_system.dcache.mem_side::system.l2cache.cpu_side       146779                       # Packet count per connected master and slave (bytes)
system.l2bar.pkt_count_system.icache.mem_side::system.l2cache.cpu_side        42586                       # Packet count per connected master and slave (bytes)
system.l2bar.pkt_count::total                  189365                       # Packet count per connected master and slave (bytes)
system.l2bar.pkt_size_system.dcache.mem_side::system.l2cache.cpu_side      5145536                       # Cumulative packet size per connected master and slave (bytes)
system.l2bar.pkt_size_system.icache.mem_side::system.l2cache.cpu_side      1362752                       # Cumulative packet size per connected master and slave (bytes)
system.l2bar.pkt_size::total                  6508288                       # Cumulative packet size per connected master and slave (bytes)
system.l2bar.respLayer1.occupancy           106465000                       # Layer occupancy (ticks)
system.l2bar.respLayer1.utilization               0.5                       # Layer utilization (%)
system.l2bar.reqLayer0.occupancy            157768000                       # Layer occupancy (ticks)
system.l2bar.reqLayer0.utilization                0.7                       # Layer utilization (%)
system.l2bar.respLayer0.occupancy           331900000                       # Layer occupancy (ticks)
system.l2bar.respLayer0.utilization               1.5                       # Layer utilization (%)
system.l2bar.power_state.pwrStateResidencyTicks::UNDEFINED  22365807000                       # Cumulative time (in ticks) in various power states
system.cpu.dtb.walker.power_state.pwrStateResidencyTicks::UNDEFINED  22365807000                       # Cumulative time (in ticks) in various power states
system.cpu.interrupts.clk_domain.clock          16000                       # Clock period in ticks
system.cpu.itb.walker.power_state.pwrStateResidencyTicks::UNDEFINED  22365807000                       # Cumulative time (in ticks) in various power states
system.cpu.power_state.numTransitions               1                       # Number of power state transitions
system.cpu.power_state.pwrStateResidencyTicks::ON  22365807000                       # Cumulative time (in ticks) in various power states

---------- End Simulation Statistics   ----------
