
---------- Begin Simulation Statistics ----------
final_tick                               1565015419000                       # Number of ticks from beginning of simulation (restored from checkpoints and never reset)
host_inst_rate                                 237363                       # Simulator instruction rate (inst/s)
host_mem_usage                                 761792                       # Number of bytes of host memory used
host_op_rate                                   450445                       # Simulator op (including micro ops) rate (op/s)
host_seconds                                    84.26                       # Real time elapsed on the host
host_tick_rate                            18573739117                       # Simulator tick rate (ticks/s)
sim_freq                                 1000000000000                       # Frequency of simulated ticks
sim_insts                                    20000000                       # Number of instructions simulated
sim_ops                                      37954277                       # Number of ops (including micro ops) simulated
sim_seconds                                  1.565015                       # Number of seconds simulated
sim_ticks                                1565015419000                       # Number of ticks simulated
system.cachebus.snoop_filter.hit_multi_requests            0                       # Number of requests hitting in the snoop filter with multiple (>1) holders of the requested data.
system.cachebus.snoop_filter.hit_multi_snoops            0                       # Number of snoops hitting in the snoop filter with multiple (>1) holders of the requested data.
system.cachebus.snoop_filter.hit_single_requests            0                       # Number of requests hitting in the snoop filter with a single holder of the requested data.
system.cachebus.snoop_filter.hit_single_snoops            0                       # Number of snoops hitting in the snoop filter with a single holder of the requested data.
system.cachebus.snoop_filter.tot_requests            0                       # Total number of requests made to the snoop filter.
system.cachebus.snoop_filter.tot_snoops             0                       # Total number of snoops made to the snoop filter.
system.cpu.Branches                           4609513                       # Number of branches fetched
system.cpu.committedInsts                    20000000                       # Number of instructions committed
system.cpu.committedOps                      37954277                       # Number of ops (including micro ops) committed
system.cpu.dtb.rdAccesses                     3838415                       # TLB accesses on read requests
system.cpu.dtb.rdMisses                          1599                       # TLB misses on read requests
system.cpu.dtb.wrAccesses                     2133900                       # TLB accesses on write requests
system.cpu.dtb.wrMisses                           180                       # TLB misses on write requests
system.cpu.idle_fraction                            0                       # Percentage of idle cycles
system.cpu.itb.rdAccesses                           0                       # TLB accesses on read requests
system.cpu.itb.rdMisses                             0                       # TLB misses on read requests
system.cpu.itb.wrAccesses                    25497722                       # TLB accesses on write requests
system.cpu.itb.wrMisses                           230                       # TLB misses on write requests
system.cpu.not_idle_fraction                        1                       # Percentage of non-idle cycles
system.cpu.numCycles                       1565015419                       # number of cpu cycles simulated
system.cpu.numWorkItemsCompleted                    0                       # number of work items this cpu completed
system.cpu.numWorkItemsStarted                      0                       # number of work items this cpu started
system.cpu.num_busy_cycles                 1565015419                       # Number of busy cycles
system.cpu.num_cc_register_reads             20955915                       # number of times the CC registers were read
system.cpu.num_cc_register_writes            11222120                       # number of times the CC registers were written
system.cpu.num_conditional_control_insts      2674165                       # number of instructions that are conditional controls
system.cpu.num_fp_alu_accesses                 184416                       # Number of float alu accesses
system.cpu.num_fp_insts                        184416                       # number of float instructions
system.cpu.num_fp_register_reads               311255                       # number of times the floating registers were read
system.cpu.num_fp_register_writes              158288                       # number of times the floating registers were written
system.cpu.num_func_calls                     1235135                       # number of times a function call or return occured
system.cpu.num_idle_cycles                          0                       # Number of idle cycles
system.cpu.num_int_alu_accesses              37793328                       # Number of integer alu accesses
system.cpu.num_int_insts                     37793328                       # number of integer instructions
system.cpu.num_int_register_reads            75568803                       # number of times the integer registers were read
system.cpu.num_int_register_writes           31032747                       # number of times the integer registers were written
system.cpu.num_load_insts                     3837369                       # Number of load instructions
system.cpu.num_mem_refs                       5971086                       # number of memory refs
system.cpu.num_store_insts                    2133717                       # Number of store instructions
system.cpu.num_vec_alu_accesses                     0                       # Number of vector alu accesses
system.cpu.num_vec_insts                            0                       # number of vector instructions
system.cpu.num_vec_register_reads                   0                       # number of times the vector registers were read
system.cpu.num_vec_register_writes                  0                       # number of times the vector registers were written
system.cpu.op_class::No_OpClass                 30676      0.08%      0.08% # Class of executed instruction
system.cpu.op_class::IntAlu                  31808632     83.81%     83.89% # Class of executed instruction
system.cpu.op_class::IntMult                       22      0.00%     83.89% # Class of executed instruction
system.cpu.op_class::IntDiv                        42      0.00%     83.89% # Class of executed instruction
system.cpu.op_class::FloatAdd                    3984      0.01%     83.90% # Class of executed instruction
system.cpu.op_class::FloatCmp                       0      0.00%     83.90% # Class of executed instruction
system.cpu.op_class::FloatCvt                       0      0.00%     83.90% # Class of executed instruction
system.cpu.op_class::FloatMult                      0      0.00%     83.90% # Class of executed instruction
system.cpu.op_class::FloatMultAcc                   0      0.00%     83.90% # Class of executed instruction
system.cpu.op_class::FloatDiv                       0      0.00%     83.90% # Class of executed instruction
system.cpu.op_class::FloatMisc                      0      0.00%     83.90% # Class of executed instruction
system.cpu.op_class::FloatSqrt                      0      0.00%     83.90% # Class of executed instruction
system.cpu.op_class::SimdAdd                       20      0.00%     83.90% # Class of executed instruction
system.cpu.op_class::SimdAddAcc                     0      0.00%     83.90% # Class of executed instruction
system.cpu.op_class::SimdAlu                    54168      0.14%     84.04% # Class of executed instruction
system.cpu.op_class::SimdCmp                     1606      0.00%     84.05% # Class of executed instruction
system.cpu.op_class::SimdCvt                    32076      0.08%     84.13% # Class of executed instruction
system.cpu.op_class::SimdMisc                   52023      0.14%     84.27% # Class of executed instruction
system.cpu.op_class::SimdMult                       0      0.00%     84.27% # Class of executed instruction
system.cpu.op_class::SimdMultAcc                    0      0.00%     84.27% # Class of executed instruction
system.cpu.op_class::SimdShift                      0      0.00%     84.27% # Class of executed instruction
system.cpu.op_class::SimdShiftAcc                   0      0.00%     84.27% # Class of executed instruction
system.cpu.op_class::SimdDiv                        0      0.00%     84.27% # Class of executed instruction
system.cpu.op_class::SimdSqrt                       0      0.00%     84.27% # Class of executed instruction
system.cpu.op_class::SimdFloatAdd                   0      0.00%     84.27% # Class of executed instruction
system.cpu.op_class::SimdFloatAlu                   0      0.00%     84.27% # Class of executed instruction
system.cpu.op_class::SimdFloatCmp                   0      0.00%     84.27% # Class of executed instruction
system.cpu.op_class::SimdFloatCvt                   0      0.00%     84.27% # Class of executed instruction
system.cpu.op_class::SimdFloatDiv                  25      0.00%     84.27% # Class of executed instruction
system.cpu.op_class::SimdFloatMisc                  0      0.00%     84.27% # Class of executed instruction
system.cpu.op_class::SimdFloatMult                  0      0.00%     84.27% # Class of executed instruction
system.cpu.op_class::SimdFloatMultAcc               0      0.00%     84.27% # Class of executed instruction
system.cpu.op_class::SimdFloatSqrt                  0      0.00%     84.27% # Class of executed instruction
system.cpu.op_class::SimdReduceAdd                  0      0.00%     84.27% # Class of executed instruction
system.cpu.op_class::SimdReduceAlu                  0      0.00%     84.27% # Class of executed instruction
system.cpu.op_class::SimdReduceCmp                  0      0.00%     84.27% # Class of executed instruction
system.cpu.op_class::SimdFloatReduceAdd             0      0.00%     84.27% # Class of executed instruction
system.cpu.op_class::SimdFloatReduceCmp             0      0.00%     84.27% # Class of executed instruction
system.cpu.op_class::SimdAes                        0      0.00%     84.27% # Class of executed instruction
system.cpu.op_class::SimdAesMix                     0      0.00%     84.27% # Class of executed instruction
system.cpu.op_class::SimdSha1Hash                   0      0.00%     84.27% # Class of executed instruction
system.cpu.op_class::SimdSha1Hash2                  0      0.00%     84.27% # Class of executed instruction
system.cpu.op_class::SimdSha256Hash                 0      0.00%     84.27% # Class of executed instruction
system.cpu.op_class::SimdSha256Hash2                0      0.00%     84.27% # Class of executed instruction
system.cpu.op_class::SimdShaSigma2                  0      0.00%     84.27% # Class of executed instruction
system.cpu.op_class::SimdShaSigma3                  0      0.00%     84.27% # Class of executed instruction
system.cpu.op_class::SimdPredAlu                    0      0.00%     84.27% # Class of executed instruction
system.cpu.op_class::MemRead                  3810757     10.04%     94.31% # Class of executed instruction
system.cpu.op_class::MemWrite                 2131724      5.62%     99.92% # Class of executed instruction
system.cpu.op_class::FloatMemRead               26612      0.07%     99.99% # Class of executed instruction
system.cpu.op_class::FloatMemWrite               1993      0.01%    100.00% # Class of executed instruction
system.cpu.op_class::IprAccess                      0      0.00%    100.00% # Class of executed instruction
system.cpu.op_class::InstPrefetch                   0      0.00%    100.00% # Class of executed instruction
system.cpu.op_class::total                   37954360                       # Class of executed instruction
system.cpu.workload.numSyscalls                    16                       # Number of system calls
system.membus.snoop_filter.hit_multi_requests            0                       # Number of requests hitting in the snoop filter with multiple (>1) holders of the requested data.
system.membus.snoop_filter.hit_multi_snoops            0                       # Number of snoops hitting in the snoop filter with multiple (>1) holders of the requested data.
system.membus.snoop_filter.hit_single_requests            0                       # Number of requests hitting in the snoop filter with a single holder of the requested data.
system.membus.snoop_filter.hit_single_snoops            0                       # Number of snoops hitting in the snoop filter with a single holder of the requested data.
system.membus.snoop_filter.tot_requests             0                       # Total number of requests made to the snoop filter.
system.membus.snoop_filter.tot_snoops               0                       # Total number of snoops made to the snoop filter.
system.membus.trans_dist::ReadReq            29336137                       # Transaction distribution
system.membus.trans_dist::ReadResp           29336136                       # Transaction distribution
system.membus.trans_dist::WriteReq            2133817                       # Transaction distribution
system.membus.trans_dist::WriteResp           2133817                       # Transaction distribution
system.membus.pkt_count_system.cpu.icache_port::system.mem_ctrl.port     50995443                       # Packet count per connected master and slave (bytes)
system.membus.pkt_count_system.cpu.icache_port::total     50995443                       # Packet count per connected master and slave (bytes)
system.membus.pkt_count_system.memobj.mem_side::system.mem_ctrl.port     11944464                       # Packet count per connected master and slave (bytes)
system.membus.pkt_count_system.memobj.mem_side::total     11944464                       # Packet count per connected master and slave (bytes)
system.membus.pkt_count::total               62939907                       # Packet count per connected master and slave (bytes)
system.membus.pkt_size_system.cpu.icache_port::system.mem_ctrl.port    203981768                       # Cumulative packet size per connected master and slave (bytes)
system.membus.pkt_size_system.cpu.icache_port::total    203981768                       # Cumulative packet size per connected master and slave (bytes)
system.membus.pkt_size_system.memobj.mem_side::system.mem_ctrl.port     42343814                       # Cumulative packet size per connected master and slave (bytes)
system.membus.pkt_size_system.memobj.mem_side::total     42343814                       # Cumulative packet size per connected master and slave (bytes)
system.membus.pkt_size::total               246325582                       # Cumulative packet size per connected master and slave (bytes)
system.membus.snoops                                0                       # Total snoops (count)
system.membus.snoopTraffic                          0                       # Total snoop traffic (bytes)
system.membus.snoop_fanout::samples          31469954                       # Request fanout histogram
system.membus.snoop_fanout::mean                    0                       # Request fanout histogram
system.membus.snoop_fanout::stdev                   0                       # Request fanout histogram
system.membus.snoop_fanout::underflows              0      0.00%      0.00% # Request fanout histogram
system.membus.snoop_fanout::0                31469954    100.00%    100.00% # Request fanout histogram
system.membus.snoop_fanout::1                       0      0.00%    100.00% # Request fanout histogram
system.membus.snoop_fanout::overflows               0      0.00%    100.00% # Request fanout histogram
system.membus.snoop_fanout::min_value               0                       # Request fanout histogram
system.membus.snoop_fanout::max_value               0                       # Request fanout histogram
system.membus.snoop_fanout::total            31469954                       # Request fanout histogram
system.membus.reqLayer2.occupancy         33603771000                       # Layer occupancy (ticks)
system.membus.reqLayer2.utilization               2.1                       # Layer utilization (%)
system.membus.respLayer1.occupancy        11000267000                       # Layer occupancy (ticks)
system.membus.respLayer1.utilization              0.7                       # Layer utilization (%)
system.membus.respLayer0.occupancy        57810919750                       # Layer occupancy (ticks)
system.membus.respLayer0.utilization              3.7                       # Layer utilization (%)
system.membus.power_state.pwrStateResidencyTicks::UNDEFINED 1565015419000                       # Cumulative time (in ticks) in various power states
system.mem_ctrl.bytes_read::.cpu.inst       203981768                       # Number of bytes read from this memory
system.mem_ctrl.bytes_read::.cpu.data        25761701                       # Number of bytes read from this memory
system.mem_ctrl.bytes_read::total           229743469                       # Number of bytes read from this memory
system.mem_ctrl.bytes_inst_read::.cpu.inst    203981768                       # Number of instructions bytes read from this memory
system.mem_ctrl.bytes_inst_read::total      203981768                       # Number of instructions bytes read from this memory
system.mem_ctrl.bytes_written::.cpu.data     16582113                       # Number of bytes written to this memory
system.mem_ctrl.bytes_written::total         16582113                       # Number of bytes written to this memory
system.mem_ctrl.num_reads::.cpu.inst         25497721                       # Number of read requests responded to by this memory
system.mem_ctrl.num_reads::.cpu.data          3838415                       # Number of read requests responded to by this memory
system.mem_ctrl.num_reads::total             29336136                       # Number of read requests responded to by this memory
system.mem_ctrl.num_writes::.cpu.data         2133817                       # Number of write requests responded to by this memory
system.mem_ctrl.num_writes::total             2133817                       # Number of write requests responded to by this memory
system.mem_ctrl.bw_read::.cpu.inst          130338504                       # Total read bandwidth from this memory (bytes/s)
system.mem_ctrl.bw_read::.cpu.data           16460989                       # Total read bandwidth from this memory (bytes/s)
system.mem_ctrl.bw_read::total              146799492                       # Total read bandwidth from this memory (bytes/s)
system.mem_ctrl.bw_inst_read::.cpu.inst     130338504                       # Instruction read bandwidth from this memory (bytes/s)
system.mem_ctrl.bw_inst_read::total         130338504                       # Instruction read bandwidth from this memory (bytes/s)
system.mem_ctrl.bw_write::.cpu.data          10595495                       # Write bandwidth from this memory (bytes/s)
system.mem_ctrl.bw_write::total              10595495                       # Write bandwidth from this memory (bytes/s)
system.mem_ctrl.bw_total::.cpu.inst         130338504                       # Total bandwidth to/from this memory (bytes/s)
system.mem_ctrl.bw_total::.cpu.data          27056484                       # Total bandwidth to/from this memory (bytes/s)
system.mem_ctrl.bw_total::total             157394987                       # Total bandwidth to/from this memory (bytes/s)
system.mem_ctrl.avgPriority_.cpu.inst::samples  25497722.00                       # Average QoS priority value for accepted requests
system.mem_ctrl.avgPriority_.cpu.data::samples   3448049.00                       # Average QoS priority value for accepted requests
system.mem_ctrl.priorityMinLatency       0.000000018750                       # per QoS priority minimum request to response latency (s)
system.mem_ctrl.priorityMaxLatency       0.152213953250                       # per QoS priority maximum request to response latency (s)
system.mem_ctrl.numReadWriteTurnArounds          1871                       # Number of turnarounds from READ to WRITE
system.mem_ctrl.numWriteReadTurnArounds          1871                       # Number of turnarounds from WRITE to READ
system.mem_ctrl.numStayReadState             60365411                       # Number of times bus staying in READ state
system.mem_ctrl.numStayWriteState               28102                       # Number of times bus staying in WRITE state
system.mem_ctrl.readReqs                     29336137                       # Number of read requests accepted
system.mem_ctrl.writeReqs                     2133817                       # Number of write requests accepted
system.mem_ctrl.readBursts                   29336137                       # Number of DRAM read bursts, including those serviced by the write queue
system.mem_ctrl.writeBursts                   2133817                       # Number of DRAM write bursts, including those merged in the write queue
system.mem_ctrl.servicedByWrQ                  420342                       # Number of DRAM read bursts serviced by the write queue
system.mem_ctrl.mergedWrBursts                2103841                       # Number of DRAM write bursts merged with an existing one
system.mem_ctrl.neitherReadNorWriteReqs             0                       # Number of requests that are neither read nor write
system.mem_ctrl.perBankRdBursts::0              97215                       # Per bank write bursts
system.mem_ctrl.perBankRdBursts::1             600384                       # Per bank write bursts
system.mem_ctrl.perBankRdBursts::2            2077737                       # Per bank write bursts
system.mem_ctrl.perBankRdBursts::3             136557                       # Per bank write bursts
system.mem_ctrl.perBankRdBursts::4           21606865                       # Per bank write bursts
system.mem_ctrl.perBankRdBursts::5            1636690                       # Per bank write bursts
system.mem_ctrl.perBankRdBursts::6              64081                       # Per bank write bursts
system.mem_ctrl.perBankRdBursts::7             454459                       # Per bank write bursts
system.mem_ctrl.perBankRdBursts::8              61345                       # Per bank write bursts
system.mem_ctrl.perBankRdBursts::9             226358                       # Per bank write bursts
system.mem_ctrl.perBankRdBursts::10            449126                       # Per bank write bursts
system.mem_ctrl.perBankRdBursts::11            525392                       # Per bank write bursts
system.mem_ctrl.perBankRdBursts::12            349211                       # Per bank write bursts
system.mem_ctrl.perBankRdBursts::13            161529                       # Per bank write bursts
system.mem_ctrl.perBankRdBursts::14            200055                       # Per bank write bursts
system.mem_ctrl.perBankRdBursts::15            268791                       # Per bank write bursts
system.mem_ctrl.perBankWrBursts::0                804                       # Per bank write bursts
system.mem_ctrl.perBankWrBursts::1                821                       # Per bank write bursts
system.mem_ctrl.perBankWrBursts::2               7355                       # Per bank write bursts
system.mem_ctrl.perBankWrBursts::3               1480                       # Per bank write bursts
system.mem_ctrl.perBankWrBursts::4               1811                       # Per bank write bursts
system.mem_ctrl.perBankWrBursts::5               2066                       # Per bank write bursts
system.mem_ctrl.perBankWrBursts::6               1434                       # Per bank write bursts
system.mem_ctrl.perBankWrBursts::7               1511                       # Per bank write bursts
system.mem_ctrl.perBankWrBursts::8               1955                       # Per bank write bursts
system.mem_ctrl.perBankWrBursts::9               2862                       # Per bank write bursts
system.mem_ctrl.perBankWrBursts::10              1620                       # Per bank write bursts
system.mem_ctrl.perBankWrBursts::11              1513                       # Per bank write bursts
system.mem_ctrl.perBankWrBursts::12              1645                       # Per bank write bursts
system.mem_ctrl.perBankWrBursts::13               912                       # Per bank write bursts
system.mem_ctrl.perBankWrBursts::14              1176                       # Per bank write bursts
system.mem_ctrl.perBankWrBursts::15               980                       # Per bank write bursts
system.mem_ctrl.avgRdQLen                        1.00                       # Average read queue length when enqueuing
system.mem_ctrl.avgWrQLen                       26.60                       # Average write queue length when enqueuing
system.mem_ctrl.totQLat                   94204139750                       # Total ticks spent queuing
system.mem_ctrl.totBusLat                144578975000                       # Total ticks spent in databus transfers
system.mem_ctrl.totMemAccLat             636375296000                       # Total ticks spent from burst creation until serviced by the DRAM
system.mem_ctrl.avgQLat                       3257.88                       # Average queueing delay per DRAM burst
system.mem_ctrl.avgBusLat                     5000.00                       # Average bus latency per DRAM burst
system.mem_ctrl.avgMemAccLat                 22007.88                       # Average memory access latency per DRAM burst
system.mem_ctrl.numRdRetry                          0                       # Number of times read queue was full causing retry
system.mem_ctrl.numWrRetry                          0                       # Number of times write queue was full causing retry
system.mem_ctrl.readRowHits                  26002978                       # Number of row buffer hits during reads
system.mem_ctrl.writeRowHits                    26347                       # Number of row buffer hits during writes
system.mem_ctrl.readRowHitRate                  89.93                       # Row buffer hit rate for reads
system.mem_ctrl.writeRowHitRate                 87.89                       # Row buffer hit rate for writes
system.mem_ctrl.readPktSize::0                  52260                       # Read request sizes (log2)
system.mem_ctrl.readPktSize::1                 269202                       # Read request sizes (log2)
system.mem_ctrl.readPktSize::2                 740778                       # Read request sizes (log2)
system.mem_ctrl.readPktSize::3               28273897                       # Read request sizes (log2)
system.mem_ctrl.readPktSize::4                      0                       # Read request sizes (log2)
system.mem_ctrl.readPktSize::5                      0                       # Read request sizes (log2)
system.mem_ctrl.readPktSize::6                      0                       # Read request sizes (log2)
system.mem_ctrl.writePktSize::0                 13564                       # Write request sizes (log2)
system.mem_ctrl.writePktSize::1                  2238                       # Write request sizes (log2)
system.mem_ctrl.writePktSize::2                 94927                       # Write request sizes (log2)
system.mem_ctrl.writePktSize::3               2023088                       # Write request sizes (log2)
system.mem_ctrl.writePktSize::4                     0                       # Write request sizes (log2)
system.mem_ctrl.writePktSize::5                     0                       # Write request sizes (log2)
system.mem_ctrl.writePktSize::6                     0                       # Write request sizes (log2)
system.mem_ctrl.rdQLenPdf::0                 28914827                       # What read queue length does an incoming req see
system.mem_ctrl.rdQLenPdf::1                      968                       # What read queue length does an incoming req see
system.mem_ctrl.rdQLenPdf::2                        0                       # What read queue length does an incoming req see
system.mem_ctrl.rdQLenPdf::3                        0                       # What read queue length does an incoming req see
system.mem_ctrl.rdQLenPdf::4                        0                       # What read queue length does an incoming req see
system.mem_ctrl.rdQLenPdf::5                        0                       # What read queue length does an incoming req see
system.mem_ctrl.rdQLenPdf::6                        0                       # What read queue length does an incoming req see
system.mem_ctrl.rdQLenPdf::7                        0                       # What read queue length does an incoming req see
system.mem_ctrl.rdQLenPdf::8                        0                       # What read queue length does an incoming req see
system.mem_ctrl.rdQLenPdf::9                        0                       # What read queue length does an incoming req see
system.mem_ctrl.rdQLenPdf::10                       0                       # What read queue length does an incoming req see
system.mem_ctrl.rdQLenPdf::11                       0                       # What read queue length does an incoming req see
system.mem_ctrl.rdQLenPdf::12                       0                       # What read queue length does an incoming req see
system.mem_ctrl.rdQLenPdf::13                       0                       # What read queue length does an incoming req see
system.mem_ctrl.rdQLenPdf::14                       0                       # What read queue length does an incoming req see
system.mem_ctrl.rdQLenPdf::15                       0                       # What read queue length does an incoming req see
system.mem_ctrl.rdQLenPdf::16                       0                       # What read queue length does an incoming req see
system.mem_ctrl.rdQLenPdf::17                       0                       # What read queue length does an incoming req see
system.mem_ctrl.rdQLenPdf::18                       0                       # What read queue length does an incoming req see
system.mem_ctrl.rdQLenPdf::19                       0                       # What read queue length does an incoming req see
system.mem_ctrl.rdQLenPdf::20                       0                       # What read queue length does an incoming req see
system.mem_ctrl.rdQLenPdf::21                       0                       # What read queue length does an incoming req see
system.mem_ctrl.rdQLenPdf::22                       0                       # What read queue length does an incoming req see
system.mem_ctrl.rdQLenPdf::23                       0                       # What read queue length does an incoming req see
system.mem_ctrl.rdQLenPdf::24                       0                       # What read queue length does an incoming req see
system.mem_ctrl.rdQLenPdf::25                       0                       # What read queue length does an incoming req see
system.mem_ctrl.rdQLenPdf::26                       0                       # What read queue length does an incoming req see
system.mem_ctrl.rdQLenPdf::27                       0                       # What read queue length does an incoming req see
system.mem_ctrl.rdQLenPdf::28                       0                       # What read queue length does an incoming req see
system.mem_ctrl.rdQLenPdf::29                       0                       # What read queue length does an incoming req see
system.mem_ctrl.rdQLenPdf::30                       0                       # What read queue length does an incoming req see
system.mem_ctrl.rdQLenPdf::31                       0                       # What read queue length does an incoming req see
system.mem_ctrl.wrQLenPdf::0                        1                       # What write queue length does an incoming req see
system.mem_ctrl.wrQLenPdf::1                        1                       # What write queue length does an incoming req see
system.mem_ctrl.wrQLenPdf::2                        1                       # What write queue length does an incoming req see
system.mem_ctrl.wrQLenPdf::3                        1                       # What write queue length does an incoming req see
system.mem_ctrl.wrQLenPdf::4                        1                       # What write queue length does an incoming req see
system.mem_ctrl.wrQLenPdf::5                        1                       # What write queue length does an incoming req see
system.mem_ctrl.wrQLenPdf::6                        1                       # What write queue length does an incoming req see
system.mem_ctrl.wrQLenPdf::7                        1                       # What write queue length does an incoming req see
system.mem_ctrl.wrQLenPdf::8                        1                       # What write queue length does an incoming req see
system.mem_ctrl.wrQLenPdf::9                        1                       # What write queue length does an incoming req see
system.mem_ctrl.wrQLenPdf::10                       1                       # What write queue length does an incoming req see
system.mem_ctrl.wrQLenPdf::11                       1                       # What write queue length does an incoming req see
system.mem_ctrl.wrQLenPdf::12                       1                       # What write queue length does an incoming req see
system.mem_ctrl.wrQLenPdf::13                       1                       # What write queue length does an incoming req see
system.mem_ctrl.wrQLenPdf::14                       1                       # What write queue length does an incoming req see
system.mem_ctrl.wrQLenPdf::15                       5                       # What write queue length does an incoming req see
system.mem_ctrl.wrQLenPdf::16                       5                       # What write queue length does an incoming req see
system.mem_ctrl.wrQLenPdf::17                    1872                       # What write queue length does an incoming req see
system.mem_ctrl.wrQLenPdf::18                    1872                       # What write queue length does an incoming req see
system.mem_ctrl.wrQLenPdf::19                    1873                       # What write queue length does an incoming req see
system.mem_ctrl.wrQLenPdf::20                    1872                       # What write queue length does an incoming req see
system.mem_ctrl.wrQLenPdf::21                    1872                       # What write queue length does an incoming req see
system.mem_ctrl.wrQLenPdf::22                    1872                       # What write queue length does an incoming req see
system.mem_ctrl.wrQLenPdf::23                    1872                       # What write queue length does an incoming req see
system.mem_ctrl.wrQLenPdf::24                    1872                       # What write queue length does an incoming req see
system.mem_ctrl.wrQLenPdf::25                    1872                       # What write queue length does an incoming req see
system.mem_ctrl.wrQLenPdf::26                    1872                       # What write queue length does an incoming req see
system.mem_ctrl.wrQLenPdf::27                    1872                       # What write queue length does an incoming req see
system.mem_ctrl.wrQLenPdf::28                    1872                       # What write queue length does an incoming req see
system.mem_ctrl.wrQLenPdf::29                    1872                       # What write queue length does an incoming req see
system.mem_ctrl.wrQLenPdf::30                    1872                       # What write queue length does an incoming req see
system.mem_ctrl.wrQLenPdf::31                    1871                       # What write queue length does an incoming req see
system.mem_ctrl.wrQLenPdf::32                    1871                       # What write queue length does an incoming req see
system.mem_ctrl.wrQLenPdf::33                       0                       # What write queue length does an incoming req see
system.mem_ctrl.wrQLenPdf::34                       0                       # What write queue length does an incoming req see
system.mem_ctrl.wrQLenPdf::35                       0                       # What write queue length does an incoming req see
system.mem_ctrl.wrQLenPdf::36                       0                       # What write queue length does an incoming req see
system.mem_ctrl.wrQLenPdf::37                       0                       # What write queue length does an incoming req see
system.mem_ctrl.wrQLenPdf::38                       0                       # What write queue length does an incoming req see
system.mem_ctrl.wrQLenPdf::39                       0                       # What write queue length does an incoming req see
system.mem_ctrl.wrQLenPdf::40                       0                       # What write queue length does an incoming req see
system.mem_ctrl.wrQLenPdf::41                       0                       # What write queue length does an incoming req see
system.mem_ctrl.wrQLenPdf::42                       0                       # What write queue length does an incoming req see
system.mem_ctrl.wrQLenPdf::43                       0                       # What write queue length does an incoming req see
system.mem_ctrl.wrQLenPdf::44                       0                       # What write queue length does an incoming req see
system.mem_ctrl.wrQLenPdf::45                       0                       # What write queue length does an incoming req see
system.mem_ctrl.wrQLenPdf::46                       0                       # What write queue length does an incoming req see
system.mem_ctrl.wrQLenPdf::47                       0                       # What write queue length does an incoming req see
system.mem_ctrl.wrQLenPdf::48                       0                       # What write queue length does an incoming req see
system.mem_ctrl.wrQLenPdf::49                       0                       # What write queue length does an incoming req see
system.mem_ctrl.wrQLenPdf::50                       0                       # What write queue length does an incoming req see
system.mem_ctrl.wrQLenPdf::51                       0                       # What write queue length does an incoming req see
system.mem_ctrl.wrQLenPdf::52                       0                       # What write queue length does an incoming req see
system.mem_ctrl.wrQLenPdf::53                       0                       # What write queue length does an incoming req see
system.mem_ctrl.wrQLenPdf::54                       0                       # What write queue length does an incoming req see
system.mem_ctrl.wrQLenPdf::55                       0                       # What write queue length does an incoming req see
system.mem_ctrl.wrQLenPdf::56                       0                       # What write queue length does an incoming req see
system.mem_ctrl.wrQLenPdf::57                       0                       # What write queue length does an incoming req see
system.mem_ctrl.wrQLenPdf::58                       0                       # What write queue length does an incoming req see
system.mem_ctrl.wrQLenPdf::59                       0                       # What write queue length does an incoming req see
system.mem_ctrl.wrQLenPdf::60                       0                       # What write queue length does an incoming req see
system.mem_ctrl.wrQLenPdf::61                       0                       # What write queue length does an incoming req see
system.mem_ctrl.wrQLenPdf::62                       0                       # What write queue length does an incoming req see
system.mem_ctrl.wrQLenPdf::63                       0                       # What write queue length does an incoming req see
system.mem_ctrl.bytesPerActivate::samples      2916412                       # Bytes accessed per row activation
system.mem_ctrl.bytesPerActivate::mean     635.207503                       # Bytes accessed per row activation
system.mem_ctrl.bytesPerActivate::gmean    392.460558                       # Bytes accessed per row activation
system.mem_ctrl.bytesPerActivate::stdev    430.676590                       # Bytes accessed per row activation
system.mem_ctrl.bytesPerActivate::0-127        639269     21.92%     21.92% # Bytes accessed per row activation
system.mem_ctrl.bytesPerActivate::128-255       374667     12.85%     34.77% # Bytes accessed per row activation
system.mem_ctrl.bytesPerActivate::256-383        85662      2.94%     37.70% # Bytes accessed per row activation
system.mem_ctrl.bytesPerActivate::384-511        62077      2.13%     39.83% # Bytes accessed per row activation
system.mem_ctrl.bytesPerActivate::512-639        59236      2.03%     41.86% # Bytes accessed per row activation
system.mem_ctrl.bytesPerActivate::640-767        64313      2.21%     44.07% # Bytes accessed per row activation
system.mem_ctrl.bytesPerActivate::768-895       128671      4.41%     48.48% # Bytes accessed per row activation
system.mem_ctrl.bytesPerActivate::896-1023        73976      2.54%     51.02% # Bytes accessed per row activation
system.mem_ctrl.bytesPerActivate::1024-1151      1428541     48.98%    100.00% # Bytes accessed per row activation
system.mem_ctrl.bytesPerActivate::total       2916412                       # Bytes accessed per row activation
system.mem_ctrl.rdPerTurnAround::samples         1871                       # Reads before turning the bus around for writes
system.mem_ctrl.rdPerTurnAround::mean    15372.413683                       # Reads before turning the bus around for writes
system.mem_ctrl.rdPerTurnAround::gmean    5156.254510                       # Reads before turning the bus around for writes
system.mem_ctrl.rdPerTurnAround::stdev   45544.455051                       # Reads before turning the bus around for writes
system.mem_ctrl.rdPerTurnAround::0-65535         1767     94.44%     94.44% # Reads before turning the bus around for writes
system.mem_ctrl.rdPerTurnAround::65536-131071           48      2.57%     97.01% # Reads before turning the bus around for writes
system.mem_ctrl.rdPerTurnAround::131072-196607           36      1.92%     98.93% # Reads before turning the bus around for writes
system.mem_ctrl.rdPerTurnAround::196608-262143           19      1.02%     99.95% # Reads before turning the bus around for writes
system.mem_ctrl.rdPerTurnAround::1.31072e+06-1.37626e+06            1      0.05%    100.00% # Reads before turning the bus around for writes
system.mem_ctrl.rdPerTurnAround::total           1871                       # Reads before turning the bus around for writes
system.mem_ctrl.wrPerTurnAround::samples         1871                       # Writes before turning the bus around for reads
system.mem_ctrl.wrPerTurnAround::mean       16.004810                       # Writes before turning the bus around for reads
system.mem_ctrl.wrPerTurnAround::gmean      16.004492                       # Writes before turning the bus around for reads
system.mem_ctrl.wrPerTurnAround::stdev       0.105862                       # Writes before turning the bus around for reads
system.mem_ctrl.wrPerTurnAround::16              1867     99.79%     99.79% # Writes before turning the bus around for reads
system.mem_ctrl.wrPerTurnAround::18                 3      0.16%     99.95% # Writes before turning the bus around for reads
system.mem_ctrl.wrPerTurnAround::19                 1      0.05%    100.00% # Writes before turning the bus around for reads
system.mem_ctrl.wrPerTurnAround::total           1871                       # Writes before turning the bus around for reads
system.mem_ctrl.bytesReadDRAM              1850610880                       # Total number of bytes read from DRAM
system.mem_ctrl.bytesReadWrQ                 26901888                       # Total number of bytes read from write queue
system.mem_ctrl.bytesWritten                  1916480                       # Total number of bytes written to DRAM
system.mem_ctrl.bytesReadSys                229743477                       # Total read bytes from the system interface side
system.mem_ctrl.bytesWrittenSys              16582113                       # Total written bytes from the system interface side
system.mem_ctrl.avgRdBW                       1182.49                       # Average DRAM read bandwidth in MiByte/s
system.mem_ctrl.avgWrBW                          1.22                       # Average achieved write bandwidth in MiByte/s
system.mem_ctrl.avgRdBWSys                     146.80                       # Average system read bandwidth in MiByte/s
system.mem_ctrl.avgWrBWSys                      10.60                       # Average system write bandwidth in MiByte/s
system.mem_ctrl.peakBW                       12800.00                       # Theoretical peak bandwidth in MiByte/s
system.mem_ctrl.busUtil                          9.25                       # Data bus utilization in percentage
system.mem_ctrl.busUtilRead                      9.24                       # Data bus utilization in percentage for reads
system.mem_ctrl.busUtilWrite                     0.01                       # Data bus utilization in percentage for writes
system.mem_ctrl.totGap                   1565015342000                       # Total gap between requests
system.mem_ctrl.avgGap                       49730.46                       # Average gap between requests
system.mem_ctrl.masterReadBytes::.cpu.inst    203981776                       # Per-master bytes read from memory
system.mem_ctrl.masterReadBytes::.cpu.data     22658255                       # Per-master bytes read from memory
system.mem_ctrl.masterWriteBytes::.cpu.data       223209                       # Per-master bytes write to memory
system.mem_ctrl.masterReadRate::.cpu.inst 130338508.824621349573                       # Per-master bytes read from memory rate (Bytes/sec)
system.mem_ctrl.masterReadRate::.cpu.data 14477975.568111637607                       # Per-master bytes read from memory rate (Bytes/sec)
system.mem_ctrl.masterWriteRate::.cpu.data 142624.153915764065                       # Per-master bytes write to memory rate (Bytes/sec)
system.mem_ctrl.masterReadAccesses::.cpu.inst     25497722                       # Per-master read serviced memory accesses
system.mem_ctrl.masterReadAccesses::.cpu.data      3838415                       # Per-master read serviced memory accesses
system.mem_ctrl.masterWriteAccesses::.cpu.data      2133817                       # Per-master write serviced memory accesses
system.mem_ctrl.masterReadTotalLat::.cpu.inst 548115758000                       # Per-master read total memory access latency
system.mem_ctrl.masterReadTotalLat::.cpu.data  88259538000                       # Per-master read total memory access latency
system.mem_ctrl.masterWriteTotalLat::.cpu.data 41041273804000                       # Per-master write total memory access latency
system.mem_ctrl.masterReadAvgLat::.cpu.inst     21496.66                       # Per-master read average memory access latency
system.mem_ctrl.masterReadAvgLat::.cpu.data     22993.75                       # Per-master read average memory access latency
system.mem_ctrl.masterWriteAvgLat::.cpu.data  19233736.45                       # Per-master write average memory access latency
system.mem_ctrl.pageHitRate                     89.92                       # Row buffer hit rate, read and write combined
system.mem_ctrl.rank1.actEnergy            3771976320                       # Energy for activate commands per rank (pJ)
system.mem_ctrl.rank1.preEnergy            2004852960                       # Energy for precharge commands per rank (pJ)
system.mem_ctrl.rank1.readEnergy          16006501980                       # Energy for read commands per rank (pJ)
system.mem_ctrl.rank1.writeEnergy            66100860                       # Energy for write commands per rank (pJ)
system.mem_ctrl.rank1.refreshEnergy      123540796080.000015                       # Energy for refresh commands per rank (pJ)
system.mem_ctrl.rank1.actBackEnergy      559810703370                       # Energy for active background per rank (pJ)
system.mem_ctrl.rank1.preBackEnergy      129546381600                       # Energy for precharge background per rank (pJ)
system.mem_ctrl.rank1.actPowerDownEnergy            0                       # Energy for active power-down per rank (pJ)
system.mem_ctrl.rank1.prePowerDownEnergy            0                       # Energy for precharge power-down per rank (pJ)
system.mem_ctrl.rank1.selfRefreshEnergy             0                       # Energy for self refresh per rank (pJ)
system.mem_ctrl.rank1.totalEnergy        834747313170                       # Total energy per rank (pJ)
system.mem_ctrl.rank1.averagePower         533.379610                       # Core power per rank (mW)
system.mem_ctrl.rank1.totalIdleTime                 0                       # Total Idle time Per DRAM Rank
system.mem_ctrl.rank1.memoryStateTime::IDLE 331239253250                       # Time in different power states
system.mem_ctrl.rank1.memoryStateTime::REF  52259220000                       # Time in different power states
system.mem_ctrl.rank1.memoryStateTime::SREF            0                       # Time in different power states
system.mem_ctrl.rank1.memoryStateTime::PRE_PDN            0                       # Time in different power states
system.mem_ctrl.rank1.memoryStateTime::ACT 1181516945750                       # Time in different power states
system.mem_ctrl.rank1.memoryStateTime::ACT_PDN            0                       # Time in different power states
system.mem_ctrl.rank0.actEnergy           17051226780                       # Energy for activate commands per rank (pJ)
system.mem_ctrl.rank0.preEnergy            9062930580                       # Energy for precharge commands per rank (pJ)
system.mem_ctrl.rank0.readEnergy         190452274320                       # Energy for read commands per rank (pJ)
system.mem_ctrl.rank0.writeEnergy            90212040                       # Energy for write commands per rank (pJ)
system.mem_ctrl.rank0.refreshEnergy      123540796080.000015                       # Energy for refresh commands per rank (pJ)
system.mem_ctrl.rank0.actBackEnergy      704446745880                       # Energy for active background per rank (pJ)
system.mem_ctrl.rank0.preBackEnergy        7747608960                       # Energy for precharge background per rank (pJ)
system.mem_ctrl.rank0.actPowerDownEnergy            0                       # Energy for active power-down per rank (pJ)
system.mem_ctrl.rank0.prePowerDownEnergy            0                       # Energy for precharge power-down per rank (pJ)
system.mem_ctrl.rank0.selfRefreshEnergy             0                       # Energy for self refresh per rank (pJ)
system.mem_ctrl.rank0.totalEnergy        1052391794640                       # Total energy per rank (pJ)
system.mem_ctrl.rank0.averagePower         672.448196                       # Core power per rank (mW)
system.mem_ctrl.rank0.totalIdleTime                 0                       # Total Idle time Per DRAM Rank
system.mem_ctrl.rank0.memoryStateTime::IDLE  13552025500                       # Time in different power states
system.mem_ctrl.rank0.memoryStateTime::REF  52259220000                       # Time in different power states
system.mem_ctrl.rank0.memoryStateTime::SREF            0                       # Time in different power states
system.mem_ctrl.rank0.memoryStateTime::PRE_PDN            0                       # Time in different power states
system.mem_ctrl.rank0.memoryStateTime::ACT 1499204173500                       # Time in different power states
system.mem_ctrl.rank0.memoryStateTime::ACT_PDN            0                       # Time in different power states
system.mem_ctrl.power_state.pwrStateResidencyTicks::UNDEFINED 1565015419000                       # Cumulative time (in ticks) in various power states
system.cache.blocked_cycles::no_mshrs               0                       # number of cycles access was blocked
system.cache.blocked_cycles::no_targets             0                       # number of cycles access was blocked
system.cache.blocked::no_mshrs                      0                       # number of cycles access was blocked
system.cache.blocked::no_targets                    0                       # number of cycles access was blocked
system.cache.avg_blocked_cycles::no_mshrs          nan                       # average number of cycles each access was blocked
system.cache.avg_blocked_cycles::no_targets          nan                       # average number of cycles each access was blocked
system.cache.replacements                           0                       # number of replacements
system.cache.power_state.pwrStateResidencyTicks::UNDEFINED 1565015419000                       # Cumulative time (in ticks) in various power states
system.cache.tags.tagsinuse                         0                       # Cycle average of tags in use
system.cache.tags.total_refs                        0                       # Total number of references to valid blocks.
system.cache.tags.sampled_refs                      0                       # Sample count of references to valid blocks.
system.cache.tags.avg_refs                        nan                       # Average number of references to valid blocks.
system.cache.tags.warmup_cycle                      0                       # Cycle when the warmup percentage was hit.
system.cache.tags.tag_accesses                      0                       # Number of tag accesses
system.cache.tags.data_accesses                     0                       # Number of data accesses
system.cache.tags.power_state.pwrStateResidencyTicks::UNDEFINED 1565015419000                       # Cumulative time (in ticks) in various power states
system.clk_domain.clock                          1000                       # Clock period in ticks
system.clk_domain.voltage_domain.voltage            1                       # Voltage in Volts
system.cachebus.snoops                              0                       # Total snoops (count)
system.cachebus.snoopTraffic                        0                       # Total snoop traffic (bytes)
system.cachebus.snoop_fanout::samples               0                       # Request fanout histogram
system.cachebus.snoop_fanout::mean                nan                       # Request fanout histogram
system.cachebus.snoop_fanout::stdev               nan                       # Request fanout histogram
system.cachebus.snoop_fanout::underflows            0                       # Request fanout histogram
system.cachebus.snoop_fanout::0                     0                       # Request fanout histogram
system.cachebus.snoop_fanout::overflows             0                       # Request fanout histogram
system.cachebus.snoop_fanout::min_value             0                       # Request fanout histogram
system.cachebus.snoop_fanout::max_value             0                       # Request fanout histogram
system.cachebus.snoop_fanout::total                 0                       # Request fanout histogram
system.cachebus.power_state.pwrStateResidencyTicks::UNDEFINED 1565015419000                       # Cumulative time (in ticks) in various power states
system.cpu.dtb.walker.power_state.pwrStateResidencyTicks::UNDEFINED 1565015419000                       # Cumulative time (in ticks) in various power states
system.cpu.interrupts.clk_domain.clock          16000                       # Clock period in ticks
system.cpu.itb.walker.power_state.pwrStateResidencyTicks::UNDEFINED 1565015419000                       # Cumulative time (in ticks) in various power states
system.cpu.power_state.numTransitions               1                       # Number of power state transitions
system.cpu.power_state.pwrStateResidencyTicks::ON 1565015419000                       # Cumulative time (in ticks) in various power states

---------- End Simulation Statistics   ----------
