
---------- Begin Simulation Statistics ----------
final_tick                                13050931000                       # Number of ticks from beginning of simulation (restored from checkpoints and never reset)
host_inst_rate                                  69272                       # Simulator instruction rate (inst/s)
host_mem_usage                               34206720                       # Number of bytes of host memory used
host_op_rate                                    82391                       # Simulator op (including micro ops) rate (op/s)
host_seconds                                    14.44                       # Real time elapsed on the host
host_tick_rate                              904046365                       # Simulator tick rate (ticks/s)
sim_freq                                 1000000000000                       # Frequency of simulated ticks
sim_insts                                     1000002                       # Number of instructions simulated
sim_ops                                       1189396                       # Number of ops (including micro ops) simulated
sim_seconds                                  0.013051                       # Number of seconds simulated
sim_ticks                                 13050931000                       # Number of ticks simulated
system.cpu.Branches                             47286                       # Number of branches fetched
system.cpu.committedInsts                     1000002                       # Number of instructions committed
system.cpu.committedOps                       1189396                       # Number of ops (including micro ops) committed
system.cpu.dtb.rdAccesses                        4335                       # TLB accesses on read requests
system.cpu.dtb.rdMisses                            16                       # TLB misses on read requests
system.cpu.dtb.wrAccesses                      858060                       # TLB accesses on write requests
system.cpu.dtb.wrMisses                          3347                       # TLB misses on write requests
system.cpu.idle_fraction                            0                       # Percentage of idle cycles
system.cpu.itb.rdAccesses                           0                       # TLB accesses on read requests
system.cpu.itb.rdMisses                             0                       # TLB misses on read requests
system.cpu.itb.wrAccesses                     1563668                       # TLB accesses on write requests
system.cpu.itb.wrMisses                            47                       # TLB misses on write requests
system.cpu.not_idle_fraction                        1                       # Percentage of non-idle cycles
system.cpu.numCycles                         13050920                       # number of cpu cycles simulated
system.cpu.numWorkItemsCompleted                    0                       # number of work items this cpu completed
system.cpu.numWorkItemsStarted                      0                       # number of work items this cpu started
system.cpu.num_busy_cycles                   13050920                       # Number of busy cycles
system.cpu.num_cc_register_reads               235911                       # number of times the CC registers were read
system.cpu.num_cc_register_writes              181814                       # number of times the CC registers were written
system.cpu.num_conditional_control_insts        46287                       # number of instructions that are conditional controls
system.cpu.num_fp_alu_accesses                 811640                       # Number of float alu accesses
system.cpu.num_fp_insts                        811640                       # number of float instructions
system.cpu.num_fp_register_reads               812152                       # number of times the floating registers were read
system.cpu.num_fp_register_writes                 609                       # number of times the floating registers were written
system.cpu.num_func_calls                         651                       # number of times a function call or return occured
system.cpu.num_idle_cycles                          0                       # Number of idle cycles
system.cpu.num_int_alu_accesses               1190348                       # Number of integer alu accesses
system.cpu.num_int_insts                      1190348                       # number of integer instructions
system.cpu.num_int_register_reads             3021944                       # number of times the integer registers were read
system.cpu.num_int_register_writes             285190                       # number of times the integer registers were written
system.cpu.num_load_insts                        4320                       # Number of load instructions
system.cpu.num_mem_refs                        862379                       # number of memory refs
system.cpu.num_store_insts                     858059                       # Number of store instructions
system.cpu.num_vec_alu_accesses                     0                       # Number of vector alu accesses
system.cpu.num_vec_insts                            0                       # number of vector instructions
system.cpu.num_vec_register_reads                   0                       # number of times the vector registers were read
system.cpu.num_vec_register_writes                  0                       # number of times the vector registers were written
system.cpu.op_class::No_OpClass                   186      0.02%      0.02% # Class of executed instruction
system.cpu.op_class::IntAlu                    327851     27.53%     27.54% # Class of executed instruction
system.cpu.op_class::IntMult                       29      0.00%     27.54% # Class of executed instruction
system.cpu.op_class::IntDiv                        70      0.01%     27.55% # Class of executed instruction
system.cpu.op_class::FloatAdd                      19      0.00%     27.55% # Class of executed instruction
system.cpu.op_class::FloatCmp                       0      0.00%     27.55% # Class of executed instruction
system.cpu.op_class::FloatCvt                       0      0.00%     27.55% # Class of executed instruction
system.cpu.op_class::FloatMult                      0      0.00%     27.55% # Class of executed instruction
system.cpu.op_class::FloatMultAcc                   0      0.00%     27.55% # Class of executed instruction
system.cpu.op_class::FloatDiv                       0      0.00%     27.55% # Class of executed instruction
system.cpu.op_class::FloatMisc                      0      0.00%     27.55% # Class of executed instruction
system.cpu.op_class::FloatSqrt                      0      0.00%     27.55% # Class of executed instruction
system.cpu.op_class::SimdAdd                        0      0.00%     27.55% # Class of executed instruction
system.cpu.op_class::SimdAddAcc                     0      0.00%     27.55% # Class of executed instruction
system.cpu.op_class::SimdAlu                      152      0.01%     27.56% # Class of executed instruction
system.cpu.op_class::SimdCmp                        0      0.00%     27.56% # Class of executed instruction
system.cpu.op_class::SimdCvt                      158      0.01%     27.58% # Class of executed instruction
system.cpu.op_class::SimdMisc                     221      0.02%     27.60% # Class of executed instruction
system.cpu.op_class::SimdMult                       0      0.00%     27.60% # Class of executed instruction
system.cpu.op_class::SimdMultAcc                    0      0.00%     27.60% # Class of executed instruction
system.cpu.op_class::SimdShift                      0      0.00%     27.60% # Class of executed instruction
system.cpu.op_class::SimdShiftAcc                   0      0.00%     27.60% # Class of executed instruction
system.cpu.op_class::SimdDiv                        0      0.00%     27.60% # Class of executed instruction
system.cpu.op_class::SimdSqrt                       0      0.00%     27.60% # Class of executed instruction
system.cpu.op_class::SimdFloatAdd                   0      0.00%     27.60% # Class of executed instruction
system.cpu.op_class::SimdFloatAlu                   0      0.00%     27.60% # Class of executed instruction
system.cpu.op_class::SimdFloatCmp                   0      0.00%     27.60% # Class of executed instruction
system.cpu.op_class::SimdFloatCvt                   2      0.00%     27.60% # Class of executed instruction
system.cpu.op_class::SimdFloatDiv                   0      0.00%     27.60% # Class of executed instruction
system.cpu.op_class::SimdFloatMisc                  0      0.00%     27.60% # Class of executed instruction
system.cpu.op_class::SimdFloatMult                  0      0.00%     27.60% # Class of executed instruction
system.cpu.op_class::SimdFloatMultAcc               0      0.00%     27.60% # Class of executed instruction
system.cpu.op_class::SimdFloatSqrt                  0      0.00%     27.60% # Class of executed instruction
system.cpu.op_class::SimdReduceAdd                  0      0.00%     27.60% # Class of executed instruction
system.cpu.op_class::SimdReduceAlu                  0      0.00%     27.60% # Class of executed instruction
system.cpu.op_class::SimdReduceCmp                  0      0.00%     27.60% # Class of executed instruction
system.cpu.op_class::SimdFloatReduceAdd             0      0.00%     27.60% # Class of executed instruction
system.cpu.op_class::SimdFloatReduceCmp             0      0.00%     27.60% # Class of executed instruction
system.cpu.op_class::SimdAes                        0      0.00%     27.60% # Class of executed instruction
system.cpu.op_class::SimdAesMix                     0      0.00%     27.60% # Class of executed instruction
system.cpu.op_class::SimdSha1Hash                   0      0.00%     27.60% # Class of executed instruction
system.cpu.op_class::SimdSha1Hash2                  0      0.00%     27.60% # Class of executed instruction
system.cpu.op_class::SimdSha256Hash                 0      0.00%     27.60% # Class of executed instruction
system.cpu.op_class::SimdSha256Hash2                0      0.00%     27.60% # Class of executed instruction
system.cpu.op_class::SimdShaSigma2                  0      0.00%     27.60% # Class of executed instruction
system.cpu.op_class::SimdShaSigma3                  0      0.00%     27.60% # Class of executed instruction
system.cpu.op_class::SimdPredAlu                    0      0.00%     27.60% # Class of executed instruction
system.cpu.op_class::MemRead                     4218      0.35%     27.95% # Class of executed instruction
system.cpu.op_class::MemWrite                   47139      3.96%     31.91% # Class of executed instruction
system.cpu.op_class::FloatMemRead                 102      0.01%     31.92% # Class of executed instruction
system.cpu.op_class::FloatMemWrite             810920     68.08%    100.00% # Class of executed instruction
system.cpu.op_class::IprAccess                      0      0.00%    100.00% # Class of executed instruction
system.cpu.op_class::InstPrefetch                   0      0.00%    100.00% # Class of executed instruction
system.cpu.op_class::total                    1191067                       # Class of executed instruction
system.cpu.workload.numSyscalls                    19                       # Number of system calls
system.dynamic_cache.flushTicks                     0                       # Ticks taken to flush
system.dynamic_cache.numFlushes                     0                       # Number of Flushes Taken
system.cache_small.demand_hits::.cpu.inst           73                       # number of demand (read+write) hits
system.cache_small.demand_hits::.cpu.data           12                       # number of demand (read+write) hits
system.cache_small.demand_hits::total              85                       # number of demand (read+write) hits
system.cache_small.overall_hits::.cpu.inst           73                       # number of overall hits
system.cache_small.overall_hits::.cpu.data           12                       # number of overall hits
system.cache_small.overall_hits::total             85                       # number of overall hits
system.cache_small.demand_misses::.cpu.inst          504                       # number of demand (read+write) misses
system.cache_small.demand_misses::.cpu.data       106889                       # number of demand (read+write) misses
system.cache_small.demand_misses::total        107393                       # number of demand (read+write) misses
system.cache_small.overall_misses::.cpu.inst          504                       # number of overall misses
system.cache_small.overall_misses::.cpu.data       106889                       # number of overall misses
system.cache_small.overall_misses::total       107393                       # number of overall misses
system.cache_small.demand_miss_latency::.cpu.inst     29669000                       # number of demand (read+write) miss cycles
system.cache_small.demand_miss_latency::.cpu.data   6556925000                       # number of demand (read+write) miss cycles
system.cache_small.demand_miss_latency::total   6586594000                       # number of demand (read+write) miss cycles
system.cache_small.overall_miss_latency::.cpu.inst     29669000                       # number of overall miss cycles
system.cache_small.overall_miss_latency::.cpu.data   6556925000                       # number of overall miss cycles
system.cache_small.overall_miss_latency::total   6586594000                       # number of overall miss cycles
system.cache_small.demand_accesses::.cpu.inst          577                       # number of demand (read+write) accesses
system.cache_small.demand_accesses::.cpu.data       106901                       # number of demand (read+write) accesses
system.cache_small.demand_accesses::total       107478                       # number of demand (read+write) accesses
system.cache_small.overall_accesses::.cpu.inst          577                       # number of overall (read+write) accesses
system.cache_small.overall_accesses::.cpu.data       106901                       # number of overall (read+write) accesses
system.cache_small.overall_accesses::total       107478                       # number of overall (read+write) accesses
system.cache_small.demand_miss_rate::.cpu.inst     0.873484                       # miss rate for demand accesses
system.cache_small.demand_miss_rate::.cpu.data     0.999888                       # miss rate for demand accesses
system.cache_small.demand_miss_rate::total     0.999209                       # miss rate for demand accesses
system.cache_small.overall_miss_rate::.cpu.inst     0.873484                       # miss rate for overall accesses
system.cache_small.overall_miss_rate::.cpu.data     0.999888                       # miss rate for overall accesses
system.cache_small.overall_miss_rate::total     0.999209                       # miss rate for overall accesses
system.cache_small.demand_avg_miss_latency::.cpu.inst 58867.063492                       # average overall miss latency
system.cache_small.demand_avg_miss_latency::.cpu.data 61343.309414                       # average overall miss latency
system.cache_small.demand_avg_miss_latency::total 61331.688285                       # average overall miss latency
system.cache_small.overall_avg_miss_latency::.cpu.inst 58867.063492                       # average overall miss latency
system.cache_small.overall_avg_miss_latency::.cpu.data 61343.309414                       # average overall miss latency
system.cache_small.overall_avg_miss_latency::total 61331.688285                       # average overall miss latency
system.cache_small.blocked_cycles::no_mshrs            0                       # number of cycles access was blocked
system.cache_small.blocked_cycles::no_targets            0                       # number of cycles access was blocked
system.cache_small.blocked::no_mshrs                0                       # number of cycles access was blocked
system.cache_small.blocked::no_targets              0                       # number of cycles access was blocked
system.cache_small.avg_blocked_cycles::no_mshrs          nan                       # average number of cycles each access was blocked
system.cache_small.avg_blocked_cycles::no_targets          nan                       # average number of cycles each access was blocked
system.cache_small.writebacks::.writebacks        90441                       # number of writebacks
system.cache_small.writebacks::total            90441                       # number of writebacks
system.cache_small.demand_mshr_misses::.cpu.inst          504                       # number of demand (read+write) MSHR misses
system.cache_small.demand_mshr_misses::.cpu.data       106889                       # number of demand (read+write) MSHR misses
system.cache_small.demand_mshr_misses::total       107393                       # number of demand (read+write) MSHR misses
system.cache_small.overall_mshr_misses::.cpu.inst          504                       # number of overall MSHR misses
system.cache_small.overall_mshr_misses::.cpu.data       106889                       # number of overall MSHR misses
system.cache_small.overall_mshr_misses::total       107393                       # number of overall MSHR misses
system.cache_small.demand_mshr_miss_latency::.cpu.inst     28661000                       # number of demand (read+write) MSHR miss cycles
system.cache_small.demand_mshr_miss_latency::.cpu.data   6343147000                       # number of demand (read+write) MSHR miss cycles
system.cache_small.demand_mshr_miss_latency::total   6371808000                       # number of demand (read+write) MSHR miss cycles
system.cache_small.overall_mshr_miss_latency::.cpu.inst     28661000                       # number of overall MSHR miss cycles
system.cache_small.overall_mshr_miss_latency::.cpu.data   6343147000                       # number of overall MSHR miss cycles
system.cache_small.overall_mshr_miss_latency::total   6371808000                       # number of overall MSHR miss cycles
system.cache_small.demand_mshr_miss_rate::.cpu.inst     0.873484                       # mshr miss rate for demand accesses
system.cache_small.demand_mshr_miss_rate::.cpu.data     0.999888                       # mshr miss rate for demand accesses
system.cache_small.demand_mshr_miss_rate::total     0.999209                       # mshr miss rate for demand accesses
system.cache_small.overall_mshr_miss_rate::.cpu.inst     0.873484                       # mshr miss rate for overall accesses
system.cache_small.overall_mshr_miss_rate::.cpu.data     0.999888                       # mshr miss rate for overall accesses
system.cache_small.overall_mshr_miss_rate::total     0.999209                       # mshr miss rate for overall accesses
system.cache_small.demand_avg_mshr_miss_latency::.cpu.inst 56867.063492                       # average overall mshr miss latency
system.cache_small.demand_avg_mshr_miss_latency::.cpu.data 59343.309414                       # average overall mshr miss latency
system.cache_small.demand_avg_mshr_miss_latency::total 59331.688285                       # average overall mshr miss latency
system.cache_small.overall_avg_mshr_miss_latency::.cpu.inst 56867.063492                       # average overall mshr miss latency
system.cache_small.overall_avg_mshr_miss_latency::.cpu.data 59343.309414                       # average overall mshr miss latency
system.cache_small.overall_avg_mshr_miss_latency::total 59331.688285                       # average overall mshr miss latency
system.cache_small.replacements                 91009                       # number of replacements
system.cache_small.ReadReq_hits::.cpu.inst           73                       # number of ReadReq hits
system.cache_small.ReadReq_hits::.cpu.data           12                       # number of ReadReq hits
system.cache_small.ReadReq_hits::total             85                       # number of ReadReq hits
system.cache_small.ReadReq_misses::.cpu.inst          504                       # number of ReadReq misses
system.cache_small.ReadReq_misses::.cpu.data       106889                       # number of ReadReq misses
system.cache_small.ReadReq_misses::total       107393                       # number of ReadReq misses
system.cache_small.ReadReq_miss_latency::.cpu.inst     29669000                       # number of ReadReq miss cycles
system.cache_small.ReadReq_miss_latency::.cpu.data   6556925000                       # number of ReadReq miss cycles
system.cache_small.ReadReq_miss_latency::total   6586594000                       # number of ReadReq miss cycles
system.cache_small.ReadReq_accesses::.cpu.inst          577                       # number of ReadReq accesses(hits+misses)
system.cache_small.ReadReq_accesses::.cpu.data       106901                       # number of ReadReq accesses(hits+misses)
system.cache_small.ReadReq_accesses::total       107478                       # number of ReadReq accesses(hits+misses)
system.cache_small.ReadReq_miss_rate::.cpu.inst     0.873484                       # miss rate for ReadReq accesses
system.cache_small.ReadReq_miss_rate::.cpu.data     0.999888                       # miss rate for ReadReq accesses
system.cache_small.ReadReq_miss_rate::total     0.999209                       # miss rate for ReadReq accesses
system.cache_small.ReadReq_avg_miss_latency::.cpu.inst 58867.063492                       # average ReadReq miss latency
system.cache_small.ReadReq_avg_miss_latency::.cpu.data 61343.309414                       # average ReadReq miss latency
system.cache_small.ReadReq_avg_miss_latency::total 61331.688285                       # average ReadReq miss latency
system.cache_small.ReadReq_mshr_misses::.cpu.inst          504                       # number of ReadReq MSHR misses
system.cache_small.ReadReq_mshr_misses::.cpu.data       106889                       # number of ReadReq MSHR misses
system.cache_small.ReadReq_mshr_misses::total       107393                       # number of ReadReq MSHR misses
system.cache_small.ReadReq_mshr_miss_latency::.cpu.inst     28661000                       # number of ReadReq MSHR miss cycles
system.cache_small.ReadReq_mshr_miss_latency::.cpu.data   6343147000                       # number of ReadReq MSHR miss cycles
system.cache_small.ReadReq_mshr_miss_latency::total   6371808000                       # number of ReadReq MSHR miss cycles
system.cache_small.ReadReq_mshr_miss_rate::.cpu.inst     0.873484                       # mshr miss rate for ReadReq accesses
system.cache_small.ReadReq_mshr_miss_rate::.cpu.data     0.999888                       # mshr miss rate for ReadReq accesses
system.cache_small.ReadReq_mshr_miss_rate::total     0.999209                       # mshr miss rate for ReadReq accesses
system.cache_small.ReadReq_avg_mshr_miss_latency::.cpu.inst 56867.063492                       # average ReadReq mshr miss latency
system.cache_small.ReadReq_avg_mshr_miss_latency::.cpu.data 59343.309414                       # average ReadReq mshr miss latency
system.cache_small.ReadReq_avg_mshr_miss_latency::total 59331.688285                       # average ReadReq mshr miss latency
system.cache_small.WritebackDirty_hits::.writebacks       106329                       # number of WritebackDirty hits
system.cache_small.WritebackDirty_hits::total       106329                       # number of WritebackDirty hits
system.cache_small.WritebackDirty_accesses::.writebacks       106329                       # number of WritebackDirty accesses(hits+misses)
system.cache_small.WritebackDirty_accesses::total       106329                       # number of WritebackDirty accesses(hits+misses)
system.cache_small.power_state.pwrStateResidencyTicks::UNDEFINED  13050931000                       # Cumulative time (in ticks) in various power states
system.cache_small.tags.tagsinuse        15097.834420                       # Cycle average of tags in use
system.cache_small.tags.total_refs             181551                       # Total number of references to valid blocks.
system.cache_small.tags.sampled_refs            91009                       # Sample count of references to valid blocks.
system.cache_small.tags.avg_refs             1.994869                       # Average number of references to valid blocks.
system.cache_small.tags.warmup_cycle            76000                       # Cycle when the warmup percentage was hit.
system.cache_small.tags.occ_blocks::.cpu.inst    31.268810                       # Average occupied blocks per requestor
system.cache_small.tags.occ_blocks::.cpu.data 15066.565610                       # Average occupied blocks per requestor
system.cache_small.tags.occ_percent::.cpu.inst     0.001908                       # Average percentage of cache occupancy
system.cache_small.tags.occ_percent::.cpu.data     0.919590                       # Average percentage of cache occupancy
system.cache_small.tags.occ_percent::total     0.921499                       # Average percentage of cache occupancy
system.cache_small.tags.occ_task_id_blocks::1024        16384                       # Occupied blocks per task id
system.cache_small.tags.age_task_id_blocks_1024::0           79                       # Occupied blocks per task id
system.cache_small.tags.age_task_id_blocks_1024::1          740                       # Occupied blocks per task id
system.cache_small.tags.age_task_id_blocks_1024::2         7382                       # Occupied blocks per task id
system.cache_small.tags.age_task_id_blocks_1024::3         8183                       # Occupied blocks per task id
system.cache_small.tags.occ_task_id_percent::1024            1                       # Percentage of cache occupancy per task id
system.cache_small.tags.tag_accesses           321200                       # Number of tag accesses
system.cache_small.tags.data_accesses          321200                       # Number of data accesses
system.cache_small.tags.power_state.pwrStateResidencyTicks::UNDEFINED  13050931000                       # Cumulative time (in ticks) in various power states
system.icache.demand_hits::.cpu.inst          1563029                       # number of demand (read+write) hits
system.icache.demand_hits::total              1563029                       # number of demand (read+write) hits
system.icache.overall_hits::.cpu.inst         1563029                       # number of overall hits
system.icache.overall_hits::total             1563029                       # number of overall hits
system.icache.demand_misses::.cpu.inst            639                       # number of demand (read+write) misses
system.icache.demand_misses::total                639                       # number of demand (read+write) misses
system.icache.overall_misses::.cpu.inst           639                       # number of overall misses
system.icache.overall_misses::total               639                       # number of overall misses
system.icache.demand_miss_latency::.cpu.inst     40573000                       # number of demand (read+write) miss cycles
system.icache.demand_miss_latency::total     40573000                       # number of demand (read+write) miss cycles
system.icache.overall_miss_latency::.cpu.inst     40573000                       # number of overall miss cycles
system.icache.overall_miss_latency::total     40573000                       # number of overall miss cycles
system.icache.demand_accesses::.cpu.inst      1563668                       # number of demand (read+write) accesses
system.icache.demand_accesses::total          1563668                       # number of demand (read+write) accesses
system.icache.overall_accesses::.cpu.inst      1563668                       # number of overall (read+write) accesses
system.icache.overall_accesses::total         1563668                       # number of overall (read+write) accesses
system.icache.demand_miss_rate::.cpu.inst     0.000409                       # miss rate for demand accesses
system.icache.demand_miss_rate::total        0.000409                       # miss rate for demand accesses
system.icache.overall_miss_rate::.cpu.inst     0.000409                       # miss rate for overall accesses
system.icache.overall_miss_rate::total       0.000409                       # miss rate for overall accesses
system.icache.demand_avg_miss_latency::.cpu.inst 63494.522692                       # average overall miss latency
system.icache.demand_avg_miss_latency::total 63494.522692                       # average overall miss latency
system.icache.overall_avg_miss_latency::.cpu.inst 63494.522692                       # average overall miss latency
system.icache.overall_avg_miss_latency::total 63494.522692                       # average overall miss latency
system.icache.blocked_cycles::no_mshrs              0                       # number of cycles access was blocked
system.icache.blocked_cycles::no_targets            0                       # number of cycles access was blocked
system.icache.blocked::no_mshrs                     0                       # number of cycles access was blocked
system.icache.blocked::no_targets                   0                       # number of cycles access was blocked
system.icache.avg_blocked_cycles::no_mshrs          nan                       # average number of cycles each access was blocked
system.icache.avg_blocked_cycles::no_targets          nan                       # average number of cycles each access was blocked
system.icache.demand_mshr_misses::.cpu.inst          639                       # number of demand (read+write) MSHR misses
system.icache.demand_mshr_misses::total           639                       # number of demand (read+write) MSHR misses
system.icache.overall_mshr_misses::.cpu.inst          639                       # number of overall MSHR misses
system.icache.overall_mshr_misses::total          639                       # number of overall MSHR misses
system.icache.demand_mshr_miss_latency::.cpu.inst     39295000                       # number of demand (read+write) MSHR miss cycles
system.icache.demand_mshr_miss_latency::total     39295000                       # number of demand (read+write) MSHR miss cycles
system.icache.overall_mshr_miss_latency::.cpu.inst     39295000                       # number of overall MSHR miss cycles
system.icache.overall_mshr_miss_latency::total     39295000                       # number of overall MSHR miss cycles
system.icache.demand_mshr_miss_rate::.cpu.inst     0.000409                       # mshr miss rate for demand accesses
system.icache.demand_mshr_miss_rate::total     0.000409                       # mshr miss rate for demand accesses
system.icache.overall_mshr_miss_rate::.cpu.inst     0.000409                       # mshr miss rate for overall accesses
system.icache.overall_mshr_miss_rate::total     0.000409                       # mshr miss rate for overall accesses
system.icache.demand_avg_mshr_miss_latency::.cpu.inst 61494.522692                       # average overall mshr miss latency
system.icache.demand_avg_mshr_miss_latency::total 61494.522692                       # average overall mshr miss latency
system.icache.overall_avg_mshr_miss_latency::.cpu.inst 61494.522692                       # average overall mshr miss latency
system.icache.overall_avg_mshr_miss_latency::total 61494.522692                       # average overall mshr miss latency
system.icache.replacements                        417                       # number of replacements
system.icache.ReadReq_hits::.cpu.inst         1563029                       # number of ReadReq hits
system.icache.ReadReq_hits::total             1563029                       # number of ReadReq hits
system.icache.ReadReq_misses::.cpu.inst           639                       # number of ReadReq misses
system.icache.ReadReq_misses::total               639                       # number of ReadReq misses
system.icache.ReadReq_miss_latency::.cpu.inst     40573000                       # number of ReadReq miss cycles
system.icache.ReadReq_miss_latency::total     40573000                       # number of ReadReq miss cycles
system.icache.ReadReq_accesses::.cpu.inst      1563668                       # number of ReadReq accesses(hits+misses)
system.icache.ReadReq_accesses::total         1563668                       # number of ReadReq accesses(hits+misses)
system.icache.ReadReq_miss_rate::.cpu.inst     0.000409                       # miss rate for ReadReq accesses
system.icache.ReadReq_miss_rate::total       0.000409                       # miss rate for ReadReq accesses
system.icache.ReadReq_avg_miss_latency::.cpu.inst 63494.522692                       # average ReadReq miss latency
system.icache.ReadReq_avg_miss_latency::total 63494.522692                       # average ReadReq miss latency
system.icache.ReadReq_mshr_misses::.cpu.inst          639                       # number of ReadReq MSHR misses
system.icache.ReadReq_mshr_misses::total          639                       # number of ReadReq MSHR misses
system.icache.ReadReq_mshr_miss_latency::.cpu.inst     39295000                       # number of ReadReq MSHR miss cycles
system.icache.ReadReq_mshr_miss_latency::total     39295000                       # number of ReadReq MSHR miss cycles
system.icache.ReadReq_mshr_miss_rate::.cpu.inst     0.000409                       # mshr miss rate for ReadReq accesses
system.icache.ReadReq_mshr_miss_rate::total     0.000409                       # mshr miss rate for ReadReq accesses
system.icache.ReadReq_avg_mshr_miss_latency::.cpu.inst 61494.522692                       # average ReadReq mshr miss latency
system.icache.ReadReq_avg_mshr_miss_latency::total 61494.522692                       # average ReadReq mshr miss latency
system.icache.power_state.pwrStateResidencyTicks::UNDEFINED  13050931000                       # Cumulative time (in ticks) in various power states
system.icache.tags.tagsinuse               221.410390                       # Cycle average of tags in use
system.icache.tags.total_refs                   12642                       # Total number of references to valid blocks.
system.icache.tags.sampled_refs                   417                       # Sample count of references to valid blocks.
system.icache.tags.avg_refs                 30.316547                       # Average number of references to valid blocks.
system.icache.tags.warmup_cycle                 82000                       # Cycle when the warmup percentage was hit.
system.icache.tags.occ_blocks::.cpu.inst   221.410390                       # Average occupied blocks per requestor
system.icache.tags.occ_percent::.cpu.inst     0.864884                       # Average percentage of cache occupancy
system.icache.tags.occ_percent::total        0.864884                       # Average percentage of cache occupancy
system.icache.tags.occ_task_id_blocks::1024          222                       # Occupied blocks per task id
system.icache.tags.age_task_id_blocks_1024::4          222                       # Occupied blocks per task id
system.icache.tags.occ_task_id_percent::1024     0.867188                       # Percentage of cache occupancy per task id
system.icache.tags.tag_accesses               1564307                       # Number of tag accesses
system.icache.tags.data_accesses              1564307                       # Number of data accesses
system.icache.tags.power_state.pwrStateResidencyTicks::UNDEFINED  13050931000                       # Cumulative time (in ticks) in various power states
system.membus.trans_dist::ReadReq              107393                       # Transaction distribution
system.membus.trans_dist::ReadResp             107393                       # Transaction distribution
system.membus.trans_dist::WritebackDirty        90441                       # Transaction distribution
system.membus.pkt_count_system.cache_small.mem_side::system.mem_ctrl.port       305227                       # Packet count per connected master and slave (bytes)
system.membus.pkt_count_system.cache_small.mem_side::total       305227                       # Packet count per connected master and slave (bytes)
system.membus.pkt_count::total                 305227                       # Packet count per connected master and slave (bytes)
system.membus.pkt_size_system.cache_small.mem_side::system.mem_ctrl.port     12661376                       # Cumulative packet size per connected master and slave (bytes)
system.membus.pkt_size_system.cache_small.mem_side::total     12661376                       # Cumulative packet size per connected master and slave (bytes)
system.membus.pkt_size::total                12661376                       # Cumulative packet size per connected master and slave (bytes)
system.membus.reqLayer2.occupancy           559598000                       # Layer occupancy (ticks)
system.membus.reqLayer2.utilization               4.3                       # Layer utilization (%)
system.membus.respLayer1.occupancy          565306500                       # Layer occupancy (ticks)
system.membus.respLayer1.utilization              4.3                       # Layer utilization (%)
system.membus.power_state.pwrStateResidencyTicks::UNDEFINED  13050931000                       # Cumulative time (in ticks) in various power states
system.mem_ctrl.bytes_read::.cpu.inst           32256                       # Number of bytes read from this memory
system.mem_ctrl.bytes_read::.cpu.data         6840896                       # Number of bytes read from this memory
system.mem_ctrl.bytes_read::total             6873152                       # Number of bytes read from this memory
system.mem_ctrl.bytes_inst_read::.cpu.inst        32256                       # Number of instructions bytes read from this memory
system.mem_ctrl.bytes_inst_read::total          32256                       # Number of instructions bytes read from this memory
system.mem_ctrl.bytes_written::.writebacks      5788224                       # Number of bytes written to this memory
system.mem_ctrl.bytes_written::total          5788224                       # Number of bytes written to this memory
system.mem_ctrl.num_reads::.cpu.inst              504                       # Number of read requests responded to by this memory
system.mem_ctrl.num_reads::.cpu.data           106889                       # Number of read requests responded to by this memory
system.mem_ctrl.num_reads::total               107393                       # Number of read requests responded to by this memory
system.mem_ctrl.num_writes::.writebacks         90441                       # Number of write requests responded to by this memory
system.mem_ctrl.num_writes::total               90441                       # Number of write requests responded to by this memory
system.mem_ctrl.bw_read::.cpu.inst            2471548                       # Total read bandwidth from this memory (bytes/s)
system.mem_ctrl.bw_read::.cpu.data          524169195                       # Total read bandwidth from this memory (bytes/s)
system.mem_ctrl.bw_read::total              526640743                       # Total read bandwidth from this memory (bytes/s)
system.mem_ctrl.bw_inst_read::.cpu.inst       2471548                       # Instruction read bandwidth from this memory (bytes/s)
system.mem_ctrl.bw_inst_read::total           2471548                       # Instruction read bandwidth from this memory (bytes/s)
system.mem_ctrl.bw_write::.writebacks       443510428                       # Write bandwidth from this memory (bytes/s)
system.mem_ctrl.bw_write::total             443510428                       # Write bandwidth from this memory (bytes/s)
system.mem_ctrl.bw_total::.writebacks       443510428                       # Total bandwidth to/from this memory (bytes/s)
system.mem_ctrl.bw_total::.cpu.inst           2471548                       # Total bandwidth to/from this memory (bytes/s)
system.mem_ctrl.bw_total::.cpu.data         524169195                       # Total bandwidth to/from this memory (bytes/s)
system.mem_ctrl.bw_total::total             970151172                       # Total bandwidth to/from this memory (bytes/s)
system.mem_ctrl.avgPriority_.writebacks::samples     90441.00                       # Average QoS priority value for accepted requests
system.mem_ctrl.avgPriority_.cpu.inst::samples       504.00                       # Average QoS priority value for accepted requests
system.mem_ctrl.avgPriority_.cpu.data::samples    106889.00                       # Average QoS priority value for accepted requests
system.mem_ctrl.priorityMinLatency       0.000000018750                       # per QoS priority minimum request to response latency (s)
system.mem_ctrl.priorityMaxLatency       0.000052632500                       # per QoS priority maximum request to response latency (s)
system.mem_ctrl.numReadWriteTurnArounds          5416                       # Number of turnarounds from READ to WRITE
system.mem_ctrl.numWriteReadTurnArounds          5416                       # Number of turnarounds from WRITE to READ
system.mem_ctrl.numStayReadState               303346                       # Number of times bus staying in READ state
system.mem_ctrl.numStayWriteState               85144                       # Number of times bus staying in WRITE state
system.mem_ctrl.readReqs                       107393                       # Number of read requests accepted
system.mem_ctrl.writeReqs                       90441                       # Number of write requests accepted
system.mem_ctrl.readBursts                     107393                       # Number of DRAM read bursts, including those serviced by the write queue
system.mem_ctrl.writeBursts                     90441                       # Number of DRAM write bursts, including those merged in the write queue
system.mem_ctrl.servicedByWrQ                       0                       # Number of DRAM read bursts serviced by the write queue
system.mem_ctrl.mergedWrBursts                      0                       # Number of DRAM write bursts merged with an existing one
system.mem_ctrl.neitherReadNorWriteReqs             0                       # Number of requests that are neither read nor write
system.mem_ctrl.perBankRdBursts::0               6731                       # Per bank write bursts
system.mem_ctrl.perBankRdBursts::1               6684                       # Per bank write bursts
system.mem_ctrl.perBankRdBursts::2               6691                       # Per bank write bursts
system.mem_ctrl.perBankRdBursts::3               6702                       # Per bank write bursts
system.mem_ctrl.perBankRdBursts::4               6694                       # Per bank write bursts
system.mem_ctrl.perBankRdBursts::5               6694                       # Per bank write bursts
system.mem_ctrl.perBankRdBursts::6               6683                       # Per bank write bursts
system.mem_ctrl.perBankRdBursts::7               6660                       # Per bank write bursts
system.mem_ctrl.perBankRdBursts::8               6670                       # Per bank write bursts
system.mem_ctrl.perBankRdBursts::9               6736                       # Per bank write bursts
system.mem_ctrl.perBankRdBursts::10              6704                       # Per bank write bursts
system.mem_ctrl.perBankRdBursts::11              6699                       # Per bank write bursts
system.mem_ctrl.perBankRdBursts::12              6695                       # Per bank write bursts
system.mem_ctrl.perBankRdBursts::13              6742                       # Per bank write bursts
system.mem_ctrl.perBankRdBursts::14              6764                       # Per bank write bursts
system.mem_ctrl.perBankRdBursts::15              6844                       # Per bank write bursts
system.mem_ctrl.perBankWrBursts::0               5632                       # Per bank write bursts
system.mem_ctrl.perBankWrBursts::1               5632                       # Per bank write bursts
system.mem_ctrl.perBankWrBursts::2               5632                       # Per bank write bursts
system.mem_ctrl.perBankWrBursts::3               5632                       # Per bank write bursts
system.mem_ctrl.perBankWrBursts::4               5632                       # Per bank write bursts
system.mem_ctrl.perBankWrBursts::5               5632                       # Per bank write bursts
system.mem_ctrl.perBankWrBursts::6               5632                       # Per bank write bursts
system.mem_ctrl.perBankWrBursts::7               5632                       # Per bank write bursts
system.mem_ctrl.perBankWrBursts::8               5634                       # Per bank write bursts
system.mem_ctrl.perBankWrBursts::9               5688                       # Per bank write bursts
system.mem_ctrl.perBankWrBursts::10              5648                       # Per bank write bursts
system.mem_ctrl.perBankWrBursts::11              5662                       # Per bank write bursts
system.mem_ctrl.perBankWrBursts::12              5644                       # Per bank write bursts
system.mem_ctrl.perBankWrBursts::13              5661                       # Per bank write bursts
system.mem_ctrl.perBankWrBursts::14              5697                       # Per bank write bursts
system.mem_ctrl.perBankWrBursts::15              5730                       # Per bank write bursts
system.mem_ctrl.avgRdQLen                        1.00                       # Average read queue length when enqueuing
system.mem_ctrl.avgWrQLen                       21.74                       # Average write queue length when enqueuing
system.mem_ctrl.totQLat                    1000664750                       # Total ticks spent queuing
system.mem_ctrl.totBusLat                   536965000                       # Total ticks spent in databus transfers
system.mem_ctrl.totMemAccLat               3014283500                       # Total ticks spent from burst creation until serviced by the DRAM
system.mem_ctrl.avgQLat                       9317.78                       # Average queueing delay per DRAM burst
system.mem_ctrl.avgBusLat                     5000.00                       # Average bus latency per DRAM burst
system.mem_ctrl.avgMemAccLat                 28067.78                       # Average memory access latency per DRAM burst
system.mem_ctrl.numRdRetry                          0                       # Number of times read queue was full causing retry
system.mem_ctrl.numWrRetry                          0                       # Number of times write queue was full causing retry
system.mem_ctrl.readRowHits                     97186                       # Number of row buffer hits during reads
system.mem_ctrl.writeRowHits                    82714                       # Number of row buffer hits during writes
system.mem_ctrl.readRowHitRate                  90.50                       # Row buffer hit rate for reads
system.mem_ctrl.writeRowHitRate                 91.46                       # Row buffer hit rate for writes
system.mem_ctrl.readPktSize::0                      0                       # Read request sizes (log2)
system.mem_ctrl.readPktSize::1                      0                       # Read request sizes (log2)
system.mem_ctrl.readPktSize::2                      0                       # Read request sizes (log2)
system.mem_ctrl.readPktSize::3                      0                       # Read request sizes (log2)
system.mem_ctrl.readPktSize::4                      0                       # Read request sizes (log2)
system.mem_ctrl.readPktSize::5                      0                       # Read request sizes (log2)
system.mem_ctrl.readPktSize::6                 107393                       # Read request sizes (log2)
system.mem_ctrl.writePktSize::0                     0                       # Write request sizes (log2)
system.mem_ctrl.writePktSize::1                     0                       # Write request sizes (log2)
system.mem_ctrl.writePktSize::2                     0                       # Write request sizes (log2)
system.mem_ctrl.writePktSize::3                     0                       # Write request sizes (log2)
system.mem_ctrl.writePktSize::4                     0                       # Write request sizes (log2)
system.mem_ctrl.writePktSize::5                     0                       # Write request sizes (log2)
system.mem_ctrl.writePktSize::6                 90441                       # Write request sizes (log2)
system.mem_ctrl.rdQLenPdf::0                   107393                       # What read queue length does an incoming req see
system.mem_ctrl.rdQLenPdf::1                        0                       # What read queue length does an incoming req see
system.mem_ctrl.rdQLenPdf::2                        0                       # What read queue length does an incoming req see
system.mem_ctrl.rdQLenPdf::3                        0                       # What read queue length does an incoming req see
system.mem_ctrl.rdQLenPdf::4                        0                       # What read queue length does an incoming req see
system.mem_ctrl.rdQLenPdf::5                        0                       # What read queue length does an incoming req see
system.mem_ctrl.rdQLenPdf::6                        0                       # What read queue length does an incoming req see
system.mem_ctrl.rdQLenPdf::7                        0                       # What read queue length does an incoming req see
system.mem_ctrl.rdQLenPdf::8                        0                       # What read queue length does an incoming req see
system.mem_ctrl.rdQLenPdf::9                        0                       # What read queue length does an incoming req see
system.mem_ctrl.rdQLenPdf::10                       0                       # What read queue length does an incoming req see
system.mem_ctrl.rdQLenPdf::11                       0                       # What read queue length does an incoming req see
system.mem_ctrl.rdQLenPdf::12                       0                       # What read queue length does an incoming req see
system.mem_ctrl.rdQLenPdf::13                       0                       # What read queue length does an incoming req see
system.mem_ctrl.rdQLenPdf::14                       0                       # What read queue length does an incoming req see
system.mem_ctrl.rdQLenPdf::15                       0                       # What read queue length does an incoming req see
system.mem_ctrl.rdQLenPdf::16                       0                       # What read queue length does an incoming req see
system.mem_ctrl.rdQLenPdf::17                       0                       # What read queue length does an incoming req see
system.mem_ctrl.rdQLenPdf::18                       0                       # What read queue length does an incoming req see
system.mem_ctrl.rdQLenPdf::19                       0                       # What read queue length does an incoming req see
system.mem_ctrl.rdQLenPdf::20                       0                       # What read queue length does an incoming req see
system.mem_ctrl.rdQLenPdf::21                       0                       # What read queue length does an incoming req see
system.mem_ctrl.rdQLenPdf::22                       0                       # What read queue length does an incoming req see
system.mem_ctrl.rdQLenPdf::23                       0                       # What read queue length does an incoming req see
system.mem_ctrl.rdQLenPdf::24                       0                       # What read queue length does an incoming req see
system.mem_ctrl.rdQLenPdf::25                       0                       # What read queue length does an incoming req see
system.mem_ctrl.rdQLenPdf::26                       0                       # What read queue length does an incoming req see
system.mem_ctrl.rdQLenPdf::27                       0                       # What read queue length does an incoming req see
system.mem_ctrl.rdQLenPdf::28                       0                       # What read queue length does an incoming req see
system.mem_ctrl.rdQLenPdf::29                       0                       # What read queue length does an incoming req see
system.mem_ctrl.rdQLenPdf::30                       0                       # What read queue length does an incoming req see
system.mem_ctrl.rdQLenPdf::31                       0                       # What read queue length does an incoming req see
system.mem_ctrl.wrQLenPdf::0                        1                       # What write queue length does an incoming req see
system.mem_ctrl.wrQLenPdf::1                        1                       # What write queue length does an incoming req see
system.mem_ctrl.wrQLenPdf::2                        1                       # What write queue length does an incoming req see
system.mem_ctrl.wrQLenPdf::3                        1                       # What write queue length does an incoming req see
system.mem_ctrl.wrQLenPdf::4                        1                       # What write queue length does an incoming req see
system.mem_ctrl.wrQLenPdf::5                        1                       # What write queue length does an incoming req see
system.mem_ctrl.wrQLenPdf::6                        1                       # What write queue length does an incoming req see
system.mem_ctrl.wrQLenPdf::7                        1                       # What write queue length does an incoming req see
system.mem_ctrl.wrQLenPdf::8                        1                       # What write queue length does an incoming req see
system.mem_ctrl.wrQLenPdf::9                        1                       # What write queue length does an incoming req see
system.mem_ctrl.wrQLenPdf::10                       1                       # What write queue length does an incoming req see
system.mem_ctrl.wrQLenPdf::11                       1                       # What write queue length does an incoming req see
system.mem_ctrl.wrQLenPdf::12                       1                       # What write queue length does an incoming req see
system.mem_ctrl.wrQLenPdf::13                       1                       # What write queue length does an incoming req see
system.mem_ctrl.wrQLenPdf::14                       1                       # What write queue length does an incoming req see
system.mem_ctrl.wrQLenPdf::15                    1807                       # What write queue length does an incoming req see
system.mem_ctrl.wrQLenPdf::16                    1928                       # What write queue length does an incoming req see
system.mem_ctrl.wrQLenPdf::17                    5407                       # What write queue length does an incoming req see
system.mem_ctrl.wrQLenPdf::18                    5418                       # What write queue length does an incoming req see
system.mem_ctrl.wrQLenPdf::19                    5418                       # What write queue length does an incoming req see
system.mem_ctrl.wrQLenPdf::20                    5417                       # What write queue length does an incoming req see
system.mem_ctrl.wrQLenPdf::21                    5416                       # What write queue length does an incoming req see
system.mem_ctrl.wrQLenPdf::22                    5416                       # What write queue length does an incoming req see
system.mem_ctrl.wrQLenPdf::23                    5416                       # What write queue length does an incoming req see
system.mem_ctrl.wrQLenPdf::24                    5416                       # What write queue length does an incoming req see
system.mem_ctrl.wrQLenPdf::25                    5417                       # What write queue length does an incoming req see
system.mem_ctrl.wrQLenPdf::26                    5422                       # What write queue length does an incoming req see
system.mem_ctrl.wrQLenPdf::27                    5448                       # What write queue length does an incoming req see
system.mem_ctrl.wrQLenPdf::28                    5416                       # What write queue length does an incoming req see
system.mem_ctrl.wrQLenPdf::29                    5416                       # What write queue length does an incoming req see
system.mem_ctrl.wrQLenPdf::30                    5416                       # What write queue length does an incoming req see
system.mem_ctrl.wrQLenPdf::31                    5416                       # What write queue length does an incoming req see
system.mem_ctrl.wrQLenPdf::32                    5416                       # What write queue length does an incoming req see
system.mem_ctrl.wrQLenPdf::33                       0                       # What write queue length does an incoming req see
system.mem_ctrl.wrQLenPdf::34                       0                       # What write queue length does an incoming req see
system.mem_ctrl.wrQLenPdf::35                       0                       # What write queue length does an incoming req see
system.mem_ctrl.wrQLenPdf::36                       0                       # What write queue length does an incoming req see
system.mem_ctrl.wrQLenPdf::37                       0                       # What write queue length does an incoming req see
system.mem_ctrl.wrQLenPdf::38                       0                       # What write queue length does an incoming req see
system.mem_ctrl.wrQLenPdf::39                       0                       # What write queue length does an incoming req see
system.mem_ctrl.wrQLenPdf::40                       0                       # What write queue length does an incoming req see
system.mem_ctrl.wrQLenPdf::41                       0                       # What write queue length does an incoming req see
system.mem_ctrl.wrQLenPdf::42                       0                       # What write queue length does an incoming req see
system.mem_ctrl.wrQLenPdf::43                       0                       # What write queue length does an incoming req see
system.mem_ctrl.wrQLenPdf::44                       0                       # What write queue length does an incoming req see
system.mem_ctrl.wrQLenPdf::45                       0                       # What write queue length does an incoming req see
system.mem_ctrl.wrQLenPdf::46                       0                       # What write queue length does an incoming req see
system.mem_ctrl.wrQLenPdf::47                       0                       # What write queue length does an incoming req see
system.mem_ctrl.wrQLenPdf::48                       0                       # What write queue length does an incoming req see
system.mem_ctrl.wrQLenPdf::49                       0                       # What write queue length does an incoming req see
system.mem_ctrl.wrQLenPdf::50                       0                       # What write queue length does an incoming req see
system.mem_ctrl.wrQLenPdf::51                       0                       # What write queue length does an incoming req see
system.mem_ctrl.wrQLenPdf::52                       0                       # What write queue length does an incoming req see
system.mem_ctrl.wrQLenPdf::53                       0                       # What write queue length does an incoming req see
system.mem_ctrl.wrQLenPdf::54                       0                       # What write queue length does an incoming req see
system.mem_ctrl.wrQLenPdf::55                       0                       # What write queue length does an incoming req see
system.mem_ctrl.wrQLenPdf::56                       0                       # What write queue length does an incoming req see
system.mem_ctrl.wrQLenPdf::57                       0                       # What write queue length does an incoming req see
system.mem_ctrl.wrQLenPdf::58                       0                       # What write queue length does an incoming req see
system.mem_ctrl.wrQLenPdf::59                       0                       # What write queue length does an incoming req see
system.mem_ctrl.wrQLenPdf::60                       0                       # What write queue length does an incoming req see
system.mem_ctrl.wrQLenPdf::61                       0                       # What write queue length does an incoming req see
system.mem_ctrl.wrQLenPdf::62                       0                       # What write queue length does an incoming req see
system.mem_ctrl.wrQLenPdf::63                       0                       # What write queue length does an incoming req see
system.mem_ctrl.bytesPerActivate::samples        17912                       # Bytes accessed per row activation
system.mem_ctrl.bytesPerActivate::mean     706.776239                       # Bytes accessed per row activation
system.mem_ctrl.bytesPerActivate::gmean    525.078804                       # Bytes accessed per row activation
system.mem_ctrl.bytesPerActivate::stdev    387.751218                       # Bytes accessed per row activation
system.mem_ctrl.bytesPerActivate::0-127           818      4.57%      4.57% # Bytes accessed per row activation
system.mem_ctrl.bytesPerActivate::128-255         3587     20.03%     24.59% # Bytes accessed per row activation
system.mem_ctrl.bytesPerActivate::256-383          754      4.21%     28.80% # Bytes accessed per row activation
system.mem_ctrl.bytesPerActivate::384-511          570      3.18%     31.98% # Bytes accessed per row activation
system.mem_ctrl.bytesPerActivate::512-639          868      4.85%     36.83% # Bytes accessed per row activation
system.mem_ctrl.bytesPerActivate::640-767          590      3.29%     40.12% # Bytes accessed per row activation
system.mem_ctrl.bytesPerActivate::768-895          593      3.31%     43.43% # Bytes accessed per row activation
system.mem_ctrl.bytesPerActivate::896-1023          726      4.05%     47.49% # Bytes accessed per row activation
system.mem_ctrl.bytesPerActivate::1024-1151         9406     52.51%    100.00% # Bytes accessed per row activation
system.mem_ctrl.bytesPerActivate::total         17912                       # Bytes accessed per row activation
system.mem_ctrl.rdPerTurnAround::samples         5416                       # Reads before turning the bus around for writes
system.mem_ctrl.rdPerTurnAround::mean       19.828102                       # Reads before turning the bus around for writes
system.mem_ctrl.rdPerTurnAround::gmean      16.724091                       # Reads before turning the bus around for writes
system.mem_ctrl.rdPerTurnAround::stdev     223.296038                       # Reads before turning the bus around for writes
system.mem_ctrl.rdPerTurnAround::0-1023          5415     99.98%     99.98% # Reads before turning the bus around for writes
system.mem_ctrl.rdPerTurnAround::16384-17407            1      0.02%    100.00% # Reads before turning the bus around for writes
system.mem_ctrl.rdPerTurnAround::total           5416                       # Reads before turning the bus around for writes
system.mem_ctrl.wrPerTurnAround::samples         5416                       # Writes before turning the bus around for reads
system.mem_ctrl.wrPerTurnAround::mean       16.694978                       # Writes before turning the bus around for reads
system.mem_ctrl.wrPerTurnAround::gmean      16.668833                       # Writes before turning the bus around for reads
system.mem_ctrl.wrPerTurnAround::stdev       0.945427                       # Writes before turning the bus around for reads
system.mem_ctrl.wrPerTurnAround::16              3489     64.42%     64.42% # Writes before turning the bus around for reads
system.mem_ctrl.wrPerTurnAround::17                99      1.83%     66.25% # Writes before turning the bus around for reads
system.mem_ctrl.wrPerTurnAround::18              1819     33.59%     99.83% # Writes before turning the bus around for reads
system.mem_ctrl.wrPerTurnAround::19                 9      0.17%    100.00% # Writes before turning the bus around for reads
system.mem_ctrl.wrPerTurnAround::total           5416                       # Writes before turning the bus around for reads
system.mem_ctrl.bytesReadDRAM                 6873152                       # Total number of bytes read from DRAM
system.mem_ctrl.bytesReadWrQ                        0                       # Total number of bytes read from write queue
system.mem_ctrl.bytesWritten                  5786880                       # Total number of bytes written to DRAM
system.mem_ctrl.bytesReadSys                  6873152                       # Total read bytes from the system interface side
system.mem_ctrl.bytesWrittenSys               5788224                       # Total written bytes from the system interface side
system.mem_ctrl.avgRdBW                        526.64                       # Average DRAM read bandwidth in MiByte/s
system.mem_ctrl.avgWrBW                        443.41                       # Average achieved write bandwidth in MiByte/s
system.mem_ctrl.avgRdBWSys                     526.64                       # Average system read bandwidth in MiByte/s
system.mem_ctrl.avgWrBWSys                     443.51                       # Average system write bandwidth in MiByte/s
system.mem_ctrl.peakBW                       12800.00                       # Theoretical peak bandwidth in MiByte/s
system.mem_ctrl.busUtil                          7.58                       # Data bus utilization in percentage
system.mem_ctrl.busUtilRead                      4.11                       # Data bus utilization in percentage for reads
system.mem_ctrl.busUtilWrite                     3.46                       # Data bus utilization in percentage for writes
system.mem_ctrl.totGap                    13050887000                       # Total gap between requests
system.mem_ctrl.avgGap                       65968.88                       # Average gap between requests
system.mem_ctrl.masterReadBytes::.cpu.inst        32256                       # Per-master bytes read from memory
system.mem_ctrl.masterReadBytes::.cpu.data      6840896                       # Per-master bytes read from memory
system.mem_ctrl.masterWriteBytes::.writebacks      5786880                       # Per-master bytes write to memory
system.mem_ctrl.masterReadRate::.cpu.inst 2471547.815247816499                       # Per-master bytes read from memory rate (Bytes/sec)
system.mem_ctrl.masterReadRate::.cpu.data 524169195.285761594772                       # Per-master bytes read from memory rate (Bytes/sec)
system.mem_ctrl.masterWriteRate::.writebacks 443407447.330768942833                       # Per-master bytes write to memory rate (Bytes/sec)
system.mem_ctrl.masterReadAccesses::.cpu.inst          504                       # Per-master read serviced memory accesses
system.mem_ctrl.masterReadAccesses::.cpu.data       106889                       # Per-master read serviced memory accesses
system.mem_ctrl.masterWriteAccesses::.writebacks        90441                       # Per-master write serviced memory accesses
system.mem_ctrl.masterReadTotalLat::.cpu.inst     12877750                       # Per-master read total memory access latency
system.mem_ctrl.masterReadTotalLat::.cpu.data   3001405750                       # Per-master read total memory access latency
system.mem_ctrl.masterWriteTotalLat::.writebacks 270747957500                       # Per-master write total memory access latency
system.mem_ctrl.masterReadAvgLat::.cpu.inst     25551.09                       # Per-master read average memory access latency
system.mem_ctrl.masterReadAvgLat::.cpu.data     28079.65                       # Per-master read average memory access latency
system.mem_ctrl.masterWriteAvgLat::.writebacks   2993641.79                       # Per-master write average memory access latency
system.mem_ctrl.pageHitRate                     90.93                       # Row buffer hit rate, read and write combined
system.mem_ctrl.rank1.actEnergy              64174320                       # Energy for activate commands per rank (pJ)
system.mem_ctrl.rank1.preEnergy              34105665                       # Energy for precharge commands per rank (pJ)
system.mem_ctrl.rank1.readEnergy            384517560                       # Energy for read commands per rank (pJ)
system.mem_ctrl.rank1.writeEnergy           236800080                       # Energy for write commands per rank (pJ)
system.mem_ctrl.rank1.refreshEnergy      1030136640.000000                       # Energy for refresh commands per rank (pJ)
system.mem_ctrl.rank1.actBackEnergy        3106189920                       # Energy for active background per rank (pJ)
system.mem_ctrl.rank1.preBackEnergy        2395818720                       # Energy for precharge background per rank (pJ)
system.mem_ctrl.rank1.actPowerDownEnergy            0                       # Energy for active power-down per rank (pJ)
system.mem_ctrl.rank1.prePowerDownEnergy            0                       # Energy for precharge power-down per rank (pJ)
system.mem_ctrl.rank1.selfRefreshEnergy             0                       # Energy for self refresh per rank (pJ)
system.mem_ctrl.rank1.totalEnergy          7251742905                       # Total energy per rank (pJ)
system.mem_ctrl.rank1.averagePower         555.649471                       # Core power per rank (mW)
system.mem_ctrl.rank1.totalIdleTime                 0                       # Total Idle time Per DRAM Rank
system.mem_ctrl.rank1.memoryStateTime::IDLE   6133516250                       # Time in different power states
system.mem_ctrl.rank1.memoryStateTime::REF    435760000                       # Time in different power states
system.mem_ctrl.rank1.memoryStateTime::SREF            0                       # Time in different power states
system.mem_ctrl.rank1.memoryStateTime::PRE_PDN            0                       # Time in different power states
system.mem_ctrl.rank1.memoryStateTime::ACT   6481654750                       # Time in different power states
system.mem_ctrl.rank1.memoryStateTime::ACT_PDN            0                       # Time in different power states
system.mem_ctrl.rank0.actEnergy              63724500                       # Energy for activate commands per rank (pJ)
system.mem_ctrl.rank0.preEnergy              33870375                       # Energy for precharge commands per rank (pJ)
system.mem_ctrl.rank0.readEnergy            382268460                       # Energy for read commands per rank (pJ)
system.mem_ctrl.rank0.writeEnergy           235192320                       # Energy for write commands per rank (pJ)
system.mem_ctrl.rank0.refreshEnergy      1030136640.000000                       # Energy for refresh commands per rank (pJ)
system.mem_ctrl.rank0.actBackEnergy        3089650230                       # Energy for active background per rank (pJ)
system.mem_ctrl.rank0.preBackEnergy        2409746880                       # Energy for precharge background per rank (pJ)
system.mem_ctrl.rank0.actPowerDownEnergy            0                       # Energy for active power-down per rank (pJ)
system.mem_ctrl.rank0.prePowerDownEnergy            0                       # Energy for precharge power-down per rank (pJ)
system.mem_ctrl.rank0.selfRefreshEnergy             0                       # Energy for self refresh per rank (pJ)
system.mem_ctrl.rank0.totalEnergy          7244589405                       # Total energy per rank (pJ)
system.mem_ctrl.rank0.averagePower         555.101349                       # Core power per rank (mW)
system.mem_ctrl.rank0.totalIdleTime                 0                       # Total Idle time Per DRAM Rank
system.mem_ctrl.rank0.memoryStateTime::IDLE   6170680750                       # Time in different power states
system.mem_ctrl.rank0.memoryStateTime::REF    435760000                       # Time in different power states
system.mem_ctrl.rank0.memoryStateTime::SREF            0                       # Time in different power states
system.mem_ctrl.rank0.memoryStateTime::PRE_PDN            0                       # Time in different power states
system.mem_ctrl.rank0.memoryStateTime::ACT   6444490250                       # Time in different power states
system.mem_ctrl.rank0.memoryStateTime::ACT_PDN            0                       # Time in different power states
system.mem_ctrl.power_state.pwrStateResidencyTicks::UNDEFINED  13050931000                       # Cumulative time (in ticks) in various power states
system.cache_medium.blocked_cycles::no_mshrs            0                       # number of cycles access was blocked
system.cache_medium.blocked_cycles::no_targets            0                       # number of cycles access was blocked
system.cache_medium.blocked::no_mshrs               0                       # number of cycles access was blocked
system.cache_medium.blocked::no_targets             0                       # number of cycles access was blocked
system.cache_medium.avg_blocked_cycles::no_mshrs          nan                       # average number of cycles each access was blocked
system.cache_medium.avg_blocked_cycles::no_targets          nan                       # average number of cycles each access was blocked
system.cache_medium.replacements                    0                       # number of replacements
system.cache_medium.power_state.pwrStateResidencyTicks::UNDEFINED  13050931000                       # Cumulative time (in ticks) in various power states
system.cache_medium.tags.tagsinuse                  0                       # Cycle average of tags in use
system.cache_medium.tags.total_refs                 0                       # Total number of references to valid blocks.
system.cache_medium.tags.sampled_refs               0                       # Sample count of references to valid blocks.
system.cache_medium.tags.avg_refs                 nan                       # Average number of references to valid blocks.
system.cache_medium.tags.warmup_cycle               0                       # Cycle when the warmup percentage was hit.
system.cache_medium.tags.tag_accesses               0                       # Number of tag accesses
system.cache_medium.tags.data_accesses              0                       # Number of data accesses
system.cache_medium.tags.power_state.pwrStateResidencyTicks::UNDEFINED  13050931000                       # Cumulative time (in ticks) in various power states
system.clk_domain.clock                          1000                       # Clock period in ticks
system.clk_domain.voltage_domain.voltage            1                       # Voltage in Volts
system.dcache.demand_hits::.cpu.data           753755                       # number of demand (read+write) hits
system.dcache.demand_hits::total               753755                       # number of demand (read+write) hits
system.dcache.overall_hits::.cpu.data          753755                       # number of overall hits
system.dcache.overall_hits::total              753755                       # number of overall hits
system.dcache.demand_misses::.cpu.data         106969                       # number of demand (read+write) misses
system.dcache.demand_misses::total             106969                       # number of demand (read+write) misses
system.dcache.overall_misses::.cpu.data        106969                       # number of overall misses
system.dcache.overall_misses::total            106969                       # number of overall misses
system.dcache.demand_miss_latency::.cpu.data   8375273000                       # number of demand (read+write) miss cycles
system.dcache.demand_miss_latency::total   8375273000                       # number of demand (read+write) miss cycles
system.dcache.overall_miss_latency::.cpu.data   8375273000                       # number of overall miss cycles
system.dcache.overall_miss_latency::total   8375273000                       # number of overall miss cycles
system.dcache.demand_accesses::.cpu.data       860724                       # number of demand (read+write) accesses
system.dcache.demand_accesses::total           860724                       # number of demand (read+write) accesses
system.dcache.overall_accesses::.cpu.data       860724                       # number of overall (read+write) accesses
system.dcache.overall_accesses::total          860724                       # number of overall (read+write) accesses
system.dcache.demand_miss_rate::.cpu.data     0.124278                       # miss rate for demand accesses
system.dcache.demand_miss_rate::total        0.124278                       # miss rate for demand accesses
system.dcache.overall_miss_rate::.cpu.data     0.124278                       # miss rate for overall accesses
system.dcache.overall_miss_rate::total       0.124278                       # miss rate for overall accesses
system.dcache.demand_avg_miss_latency::.cpu.data 78296.263403                       # average overall miss latency
system.dcache.demand_avg_miss_latency::total 78296.263403                       # average overall miss latency
system.dcache.overall_avg_miss_latency::.cpu.data 78296.263403                       # average overall miss latency
system.dcache.overall_avg_miss_latency::total 78296.263403                       # average overall miss latency
system.dcache.blocked_cycles::no_mshrs              0                       # number of cycles access was blocked
system.dcache.blocked_cycles::no_targets            0                       # number of cycles access was blocked
system.dcache.blocked::no_mshrs                     0                       # number of cycles access was blocked
system.dcache.blocked::no_targets                   0                       # number of cycles access was blocked
system.dcache.avg_blocked_cycles::no_mshrs          nan                       # average number of cycles each access was blocked
system.dcache.avg_blocked_cycles::no_targets          nan                       # average number of cycles each access was blocked
system.dcache.writebacks::.writebacks          106609                       # number of writebacks
system.dcache.writebacks::total                106609                       # number of writebacks
system.dcache.demand_mshr_misses::.cpu.data       106969                       # number of demand (read+write) MSHR misses
system.dcache.demand_mshr_misses::total        106969                       # number of demand (read+write) MSHR misses
system.dcache.overall_mshr_misses::.cpu.data       106969                       # number of overall MSHR misses
system.dcache.overall_mshr_misses::total       106969                       # number of overall MSHR misses
system.dcache.demand_mshr_miss_latency::.cpu.data   8161337000                       # number of demand (read+write) MSHR miss cycles
system.dcache.demand_mshr_miss_latency::total   8161337000                       # number of demand (read+write) MSHR miss cycles
system.dcache.overall_mshr_miss_latency::.cpu.data   8161337000                       # number of overall MSHR miss cycles
system.dcache.overall_mshr_miss_latency::total   8161337000                       # number of overall MSHR miss cycles
system.dcache.demand_mshr_miss_rate::.cpu.data     0.124278                       # mshr miss rate for demand accesses
system.dcache.demand_mshr_miss_rate::total     0.124278                       # mshr miss rate for demand accesses
[...]
system.dcache.tags.occ_percent::total        0.999181                       # Average percentage of cache occupancy
system.dcache.tags.occ_task_id_blocks::1024          256                       # Occupied blocks per task id
system.dcache.tags.age_task_id_blocks_1024::0           83                       # Occupied blocks per task id
system.dcache.tags.age_task_id_blocks_1024::1          173                       # Occupied blocks per task id
system.dcache.tags.occ_task_id_percent::1024            1                       # Percentage of cache occupancy per task id
system.dcache.tags.tag_accesses               6837257                       # Number of tag accesses
system.dcache.tags.data_accesses              6837257                       # Number of data accesses
system.dcache.tags.power_state.pwrStateResidencyTicks::UNDEFINED  92667440000                       # Cumulative time (in ticks) in various power states
system.cache_large.blocked_cycles::no_mshrs            0                       # number of cycles access was blocked
system.cache_large.blocked_cycles::no_targets            0                       # number of cycles access was blocked
system.cache_large.blocked::no_mshrs                0                       # number of cycles access was blocked
system.cache_large.blocked::no_targets              0                       # number of cycles access was blocked
system.cache_large.avg_blocked_cycles::no_mshrs          nan                       # average number of cycles each access was blocked
system.cache_large.avg_blocked_cycles::no_targets          nan                       # average number of cycles each access was blocked
system.cache_large.replacements                     0                       # number of replacements
system.cache_large.power_state.pwrStateResidencyTicks::UNDEFINED  92667440000                       # Cumulative time (in ticks) in various power states
system.cache_large.tags.tagsinuse                   0                       # Cycle average of tags in use
system.cache_large.tags.total_refs                  0                       # Total number of references to valid blocks.
system.cache_large.tags.sampled_refs                0                       # Sample count of references to valid blocks.
system.cache_large.tags.avg_refs                  nan                       # Average number of references to valid blocks.
system.cache_large.tags.warmup_cycle                0                       # Cycle when the warmup percentage was hit.
system.cache_large.tags.tag_accesses                0                       # Number of tag accesses
system.cache_large.tags.data_accesses               0                       # Number of data accesses
system.cache_large.tags.power_state.pwrStateResidencyTicks::UNDEFINED  92667440000                       # Cumulative time (in ticks) in various power states
system.l2cache.demand_hits::.cpu.inst              62                       # number of demand (read+write) hits
system.l2cache.demand_hits::.cpu.data              67                       # number of demand (read+write) hits
system.l2cache.demand_hits::total                 129                       # number of demand (read+write) hits
system.l2cache.overall_hits::.cpu.inst             62                       # number of overall hits
system.l2cache.overall_hits::.cpu.data             67                       # number of overall hits
system.l2cache.overall_hits::total                129                       # number of overall hits
system.l2cache.demand_misses::.cpu.inst           577                       # number of demand (read+write) misses
system.l2cache.demand_misses::.cpu.data        759075                       # number of demand (read+write) misses
system.l2cache.demand_misses::total            759652                       # number of demand (read+write) misses
system.l2cache.overall_misses::.cpu.inst          577                       # number of overall misses
system.l2cache.overall_misses::.cpu.data       759075                       # number of overall misses
system.l2cache.overall_misses::total           759652                       # number of overall misses
system.l2cache.demand_miss_latency::.cpu.inst     36162000                       # number of demand (read+write) miss cycles
system.l2cache.demand_miss_latency::.cpu.data  55482536000                       # number of demand (read+write) miss cycles
system.l2cache.demand_miss_latency::total  55518698000                       # number of demand (read+write) miss cycles
system.l2cache.overall_miss_latency::.cpu.inst     36162000                       # number of overall miss cycles
system.l2cache.overall_miss_latency::.cpu.data  55482536000                       # number of overall miss cycles
system.l2cache.overall_miss_latency::total  55518698000                       # number of overall miss cycles
system.l2cache.demand_accesses::.cpu.inst          639                       # number of demand (read+write) accesses
system.l2cache.demand_accesses::.cpu.data       759142                       # number of demand (read+write) accesses
system.l2cache.demand_accesses::total          759781                       # number of demand (read+write) accesses
system.l2cache.overall_accesses::.cpu.inst          639                       # number of overall (read+write) accesses
system.l2cache.overall_accesses::.cpu.data       759142                       # number of overall (read+write) accesses
system.l2cache.overall_accesses::total         759781                       # number of overall (read+write) accesses
system.l2cache.demand_miss_rate::.cpu.inst     0.902973                       # miss rate for demand accesses
system.l2cache.demand_miss_rate::.cpu.data     0.999912                       # miss rate for demand accesses
system.l2cache.demand_miss_rate::total       0.999830                       # miss rate for demand accesses
system.l2cache.overall_miss_rate::.cpu.inst     0.902973                       # miss rate for overall accesses
system.l2cache.overall_miss_rate::.cpu.data     0.999912                       # miss rate for overall accesses
system.l2cache.overall_miss_rate::total      0.999830                       # miss rate for overall accesses
system.l2cache.demand_avg_miss_latency::.cpu.inst 62672.443674                       # average overall miss latency
system.l2cache.demand_avg_miss_latency::.cpu.data 73092.297863                       # average overall miss latency
system.l2cache.demand_avg_miss_latency::total 73084.383376                       # average overall miss latency
system.l2cache.overall_avg_miss_latency::.cpu.inst 62672.443674                       # average overall miss latency
system.l2cache.overall_avg_miss_latency::.cpu.data 73092.297863                       # average overall miss latency
system.l2cache.overall_avg_miss_latency::total 73084.383376                       # average overall miss latency
system.l2cache.blocked_cycles::no_mshrs             0                       # number of cycles access was blocked
system.l2cache.blocked_cycles::no_targets            0                       # number of cycles access was blocked
system.l2cache.blocked::no_mshrs                    0                       # number of cycles access was blocked
system.l2cache.blocked::no_targets                  0                       # number of cycles access was blocked
system.l2cache.avg_blocked_cycles::no_mshrs          nan                       # average number of cycles each access was blocked
system.l2cache.avg_blocked_cycles::no_targets          nan                       # average number of cycles each access was blocked
system.l2cache.writebacks::.writebacks         758503                       # number of writebacks
system.l2cache.writebacks::total               758503                       # number of writebacks
system.l2cache.demand_mshr_misses::.cpu.inst          577                       # number of demand (read+write) MSHR misses
system.l2cache.demand_mshr_misses::.cpu.data       759075                       # number of demand (read+write) MSHR misses
system.l2cache.demand_mshr_misses::total       759652                       # number of demand (read+write) MSHR misses
system.l2cache.overall_mshr_misses::.cpu.inst          577                       # number of overall MSHR misses
system.l2cache.overall_mshr_misses::.cpu.data       759075                       # number of overall MSHR misses
system.l2cache.overall_mshr_misses::total       759652                       # number of overall MSHR misses
system.l2cache.demand_mshr_miss_latency::.cpu.inst     35008000                       # number of demand (read+write) MSHR miss cycles
system.l2cache.demand_mshr_miss_latency::.cpu.data  53964386000                       # number of demand (read+write) MSHR miss cycles
system.l2cache.demand_mshr_miss_latency::total  53999394000                       # number of demand (read+write) MSHR miss cycles
system.l2cache.overall_mshr_miss_latency::.cpu.inst     35008000                       # number of overall MSHR miss cycles
system.l2cache.overall_mshr_miss_latency::.cpu.data  53964386000                       # number of overall MSHR miss cycles
system.l2cache.overall_mshr_miss_latency::total  53999394000                       # number of overall MSHR miss cycles
system.l2cache.demand_mshr_miss_rate::.cpu.inst     0.902973                       # mshr miss rate for demand accesses
system.l2cache.demand_mshr_miss_rate::.cpu.data     0.999912                       # mshr miss rate for demand accesses
system.l2cache.demand_mshr_miss_rate::total     0.999830                       # mshr miss rate for demand accesses
system.l2cache.overall_mshr_miss_rate::.cpu.inst     0.902973                       # mshr miss rate for overall accesses
system.l2cache.overall_mshr_miss_rate::.cpu.data     0.999912                       # mshr miss rate for overall accesses
system.l2cache.overall_mshr_miss_rate::total     0.999830                       # mshr miss rate for overall accesses
system.l2cache.demand_avg_mshr_miss_latency::.cpu.inst 60672.443674                       # average overall mshr miss latency
system.l2cache.demand_avg_mshr_miss_latency::.cpu.data 71092.297863                       # average overall mshr miss latency
system.l2cache.demand_avg_mshr_miss_latency::total 71084.383376                       # average overall mshr miss latency
system.l2cache.overall_avg_mshr_miss_latency::.cpu.inst 60672.443674                       # average overall mshr miss latency
system.l2cache.overall_avg_mshr_miss_latency::.cpu.data 71092.297863                       # average overall mshr miss latency
system.l2cache.overall_avg_mshr_miss_latency::total 71084.383376                       # average overall mshr miss latency
system.l2cache.replacements                    759285                       # number of replacements
system.l2cache.ReadReq_hits::.cpu.inst             62                       # number of ReadReq hits
system.l2cache.ReadReq_hits::.cpu.data             67                       # number of ReadReq hits
system.l2cache.ReadReq_hits::total                129                       # number of ReadReq hits
system.l2cache.ReadReq_misses::.cpu.inst          577                       # number of ReadReq misses
system.l2cache.ReadReq_misses::.cpu.data       759075                       # number of ReadReq misses
system.l2cache.ReadReq_misses::total           759652                       # number of ReadReq misses
system.l2cache.ReadReq_miss_latency::.cpu.inst     36162000                       # number of ReadReq miss cycles
system.l2cache.ReadReq_miss_latency::.cpu.data  55482536000                       # number of ReadReq miss cycles
system.l2cache.ReadReq_miss_latency::total  55518698000                       # number of ReadReq miss cycles
system.l2cache.ReadReq_accesses::.cpu.inst          639                       # number of ReadReq accesses(hits+misses)
system.l2cache.ReadReq_accesses::.cpu.data       759142                       # number of ReadReq accesses(hits+misses)
system.l2cache.ReadReq_accesses::total         759781                       # number of ReadReq accesses(hits+misses)
system.l2cache.ReadReq_miss_rate::.cpu.inst     0.902973                       # miss rate for ReadReq accesses
system.l2cache.ReadReq_miss_rate::.cpu.data     0.999912                       # miss rate for ReadReq accesses
system.l2cache.ReadReq_miss_rate::total      0.999830                       # miss rate for ReadReq accesses
system.l2cache.ReadReq_avg_miss_latency::.cpu.inst 62672.443674                       # average ReadReq miss latency
system.l2cache.ReadReq_avg_miss_latency::.cpu.data 73092.297863                       # average ReadReq miss latency
system.l2cache.ReadReq_avg_miss_latency::total 73084.383376                       # average ReadReq miss latency
system.l2cache.ReadReq_mshr_misses::.cpu.inst          577                       # number of ReadReq MSHR misses
system.l2cache.ReadReq_mshr_misses::.cpu.data       759075                       # number of ReadReq MSHR misses
system.l2cache.ReadReq_mshr_misses::total       759652                       # number of ReadReq MSHR misses
system.l2cache.ReadReq_mshr_miss_latency::.cpu.inst     35008000                       # number of ReadReq MSHR miss cycles
system.l2cache.ReadReq_mshr_miss_latency::.cpu.data  53964386000                       # number of ReadReq MSHR miss cycles
system.l2cache.ReadReq_mshr_miss_latency::total  53999394000                       # number of ReadReq MSHR miss cycles
system.l2cache.ReadReq_mshr_miss_rate::.cpu.inst     0.902973                       # mshr miss rate for ReadReq accesses
system.l2cache.ReadReq_mshr_miss_rate::.cpu.data     0.999912                       # mshr miss rate for ReadReq accesses
system.l2cache.ReadReq_mshr_miss_rate::total     0.999830                       # mshr miss rate for ReadReq accesses
system.l2cache.ReadReq_avg_mshr_miss_latency::.cpu.inst 60672.443674                       # average ReadReq mshr miss latency
system.l2cache.ReadReq_avg_mshr_miss_latency::.cpu.data 71092.297863                       # average ReadReq mshr miss latency
system.l2cache.ReadReq_avg_mshr_miss_latency::total 71084.383376                       # average ReadReq mshr miss latency
system.l2cache.WritebackDirty_hits::.writebacks       758783                       # number of WritebackDirty hits
system.l2cache.WritebackDirty_hits::total       758783                       # number of WritebackDirty hits
system.l2cache.WritebackDirty_accesses::.writebacks       758783                       # number of WritebackDirty accesses(hits+misses)
system.l2cache.WritebackDirty_accesses::total       758783                       # number of WritebackDirty accesses(hits+misses)
system.l2cache.power_state.pwrStateResidencyTicks::UNDEFINED  92667440000                       # Cumulative time (in ticks) in various power states
system.l2cache.tags.tagsinuse              511.635384                       # Cycle average of tags in use
system.l2cache.tags.total_refs                1518564                       # Total number of references to valid blocks.
system.l2cache.tags.sampled_refs               759797                       # Sample count of references to valid blocks.
system.l2cache.tags.avg_refs                 1.998644                       # Average number of references to valid blocks.
system.l2cache.tags.warmup_cycle                78000                       # Cycle when the warmup percentage was hit.
system.l2cache.tags.occ_blocks::.writebacks     0.051952                       # Average occupied blocks per requestor
system.l2cache.tags.occ_blocks::.cpu.inst     0.298160                       # Average occupied blocks per requestor
system.l2cache.tags.occ_blocks::.cpu.data   511.285272                       # Average occupied blocks per requestor
system.l2cache.tags.occ_percent::.writebacks     0.000101                       # Average percentage of cache occupancy
system.l2cache.tags.occ_percent::.cpu.inst     0.000582                       # Average percentage of cache occupancy
system.l2cache.tags.occ_percent::.cpu.data     0.998604                       # Average percentage of cache occupancy
system.l2cache.tags.occ_percent::total       0.999288                       # Average percentage of cache occupancy
system.l2cache.tags.occ_task_id_blocks::1024          512                       # Occupied blocks per task id
system.l2cache.tags.age_task_id_blocks_1024::0           83                       # Occupied blocks per task id
system.l2cache.tags.age_task_id_blocks_1024::1          429                       # Occupied blocks per task id
system.l2cache.tags.occ_task_id_percent::1024            1                       # Percentage of cache occupancy per task id
system.l2cache.tags.tag_accesses              2278361                       # Number of tag accesses
system.l2cache.tags.data_accesses             2278361                       # Number of data accesses
system.l2cache.tags.power_state.pwrStateResidencyTicks::UNDEFINED  92667440000                       # Cumulative time (in ticks) in various power states
system.l2bar.trans_dist::ReadReq               759781                       # Transaction distribution
system.l2bar.trans_dist::ReadResp              759781                       # Transaction distribution
system.l2bar.trans_dist::WritebackDirty        758783                       # Transaction distribution
system.l2bar.pkt_count_system.dcache.mem_side::system.l2cache.cpu_side      2277067                       # Packet count per connected master and slave (bytes)
system.l2bar.pkt_count_system.icache.mem_side::system.l2cache.cpu_side         1278                       # Packet count per connected master and slave (bytes)
system.l2bar.pkt_count::total                 2278345                       # Packet count per connected master and slave (bytes)
system.l2bar.pkt_size_system.dcache.mem_side::system.l2cache.cpu_side     97147200                       # Cumulative packet size per connected master and slave (bytes)
system.l2bar.pkt_size_system.icache.mem_side::system.l2cache.cpu_side        40896                       # Cumulative packet size per connected master and slave (bytes)
system.l2bar.pkt_size::total                 97188096                       # Cumulative packet size per connected master and slave (bytes)
system.l2bar.respLayer1.occupancy             3195000                       # Layer occupancy (ticks)
system.l2bar.respLayer1.utilization               0.0                       # Layer utilization (%)
system.l2bar.reqLayer0.occupancy           4553696000                       # Layer occupancy (ticks)
system.l2bar.reqLayer0.utilization                4.9                       # Layer utilization (%)
system.l2bar.respLayer0.occupancy          3795710000                       # Layer occupancy (ticks)
system.l2bar.respLayer0.utilization               4.1                       # Layer utilization (%)
system.l2bar.power_state.pwrStateResidencyTicks::UNDEFINED  92667440000                       # Cumulative time (in ticks) in various power states
system.cpu.dtb.walker.power_state.pwrStateResidencyTicks::UNDEFINED  92667440000                       # Cumulative time (in ticks) in various power states
system.cpu.interrupts.clk_domain.clock          16000                       # Clock period in ticks
system.cpu.itb.walker.power_state.pwrStateResidencyTicks::UNDEFINED  92667440000                       # Cumulative time (in ticks) in various power states
system.cpu.power_state.numTransitions               1                       # Number of power state transitions
system.cpu.power_state.pwrStateResidencyTicks::ON  92667440000                       # Cumulative time (in ticks) in various power states

---------- End Simulation Statistics   ----------
