
---------- Begin Simulation Statistics ----------
final_tick                                  212066000                       # Number of ticks from beginning of simulation (restored from checkpoints and never reset)
host_inst_rate                                  61857                       # Simulator instruction rate (inst/s)
host_mem_usage                               34202892                       # Number of bytes of host memory used
host_op_rate                                   122299                       # Simulator op (including micro ops) rate (op/s)
host_seconds                                     0.47                       # Real time elapsed on the host
host_tick_rate                              453685656                       # Simulator tick rate (ticks/s)
sim_freq                                 1000000000000                       # Frequency of simulated ticks
sim_insts                                       28895                       # Number of instructions simulated
sim_ops                                         57159                       # Number of ops (including micro ops) simulated
sim_seconds                                  0.000212                       # Number of seconds simulated
sim_ticks                                   212066000                       # Number of ticks simulated
system.cpu.Branches                              6467                       # Number of branches fetched
system.cpu.committedInsts                       28895                       # Number of instructions committed
system.cpu.committedOps                         57159                       # Number of ops (including micro ops) committed
system.cpu.dtb.rdAccesses                        6062                       # TLB accesses on read requests
system.cpu.dtb.rdMisses                            24                       # TLB misses on read requests
system.cpu.dtb.wrAccesses                        6696                       # TLB accesses on write requests
system.cpu.dtb.wrMisses                            18                       # TLB misses on write requests
system.cpu.idle_fraction                     0.000000                       # Percentage of idle cycles
system.cpu.itb.rdAccesses                           0                       # TLB accesses on read requests
system.cpu.itb.rdMisses                             0                       # TLB misses on read requests
system.cpu.itb.wrAccesses                       38675                       # TLB accesses on write requests
system.cpu.itb.wrMisses                            72                       # TLB misses on write requests
system.cpu.not_idle_fraction                 1.000000                       # Percentage of non-idle cycles
system.cpu.numCycles                           212066                       # number of cpu cycles simulated
system.cpu.numWorkItemsCompleted                    0                       # number of work items this cpu completed
system.cpu.numWorkItemsStarted                      0                       # number of work items this cpu started
system.cpu.num_busy_cycles               212065.999000                       # Number of busy cycles
system.cpu.num_cc_register_reads                33817                       # number of times the CC registers were read
system.cpu.num_cc_register_writes               17659                       # number of times the CC registers were written
system.cpu.num_conditional_control_insts         4919                       # number of instructions that are conditional controls
system.cpu.num_fp_alu_accesses                   2696                       # Number of float alu accesses
system.cpu.num_fp_insts                          2696                       # number of float instructions
system.cpu.num_fp_register_reads                 3386                       # number of times the floating registers were read
system.cpu.num_fp_register_writes                 955                       # number of times the floating registers were written
system.cpu.num_func_calls                        1056                       # number of times a function call or return occured
system.cpu.num_idle_cycles                   0.001000                       # Number of idle cycles
system.cpu.num_int_alu_accesses                 55918                       # Number of integer alu accesses
system.cpu.num_int_insts                        55918                       # number of integer instructions
system.cpu.num_int_register_reads              108969                       # number of times the integer registers were read
system.cpu.num_int_register_writes              42903                       # number of times the integer registers were written
system.cpu.num_load_insts                        6057                       # Number of load instructions
system.cpu.num_mem_refs                         12753                       # number of memory refs
system.cpu.num_store_insts                       6696                       # Number of store instructions
system.cpu.num_vec_alu_accesses                     0                       # Number of vector alu accesses
system.cpu.num_vec_insts                            0                       # number of vector instructions
system.cpu.num_vec_register_reads                   0                       # number of times the vector registers were read
system.cpu.num_vec_register_writes                  0                       # number of times the vector registers were written
system.cpu.op_class::No_OpClass                   417      0.73%      0.73% # Class of executed instruction
system.cpu.op_class::IntAlu                     43028     75.27%     76.00% # Class of executed instruction
system.cpu.op_class::IntMult                       29      0.05%     76.05% # Class of executed instruction
system.cpu.op_class::IntDiv                        21      0.04%     76.09% # Class of executed instruction
system.cpu.op_class::FloatAdd                      25      0.04%     76.13% # Class of executed instruction
system.cpu.op_class::FloatCmp                       0      0.00%     76.13% # Class of executed instruction
system.cpu.op_class::FloatCvt                       0      0.00%     76.13% # Class of executed instruction
system.cpu.op_class::FloatMult                      0      0.00%     76.13% # Class of executed instruction
system.cpu.op_class::FloatMultAcc                   0      0.00%     76.13% # Class of executed instruction
system.cpu.op_class::FloatDiv                       0      0.00%     76.13% # Class of executed instruction
system.cpu.op_class::FloatMisc                      0      0.00%     76.13% # Class of executed instruction
system.cpu.op_class::FloatSqrt                      0      0.00%     76.13% # Class of executed instruction
system.cpu.op_class::SimdAdd                        2      0.00%     76.13% # Class of executed instruction
system.cpu.op_class::SimdAddAcc                     0      0.00%     76.13% # Class of executed instruction
system.cpu.op_class::SimdAlu                      274      0.48%     76.61% # Class of executed instruction
system.cpu.op_class::SimdCmp                       12      0.02%     76.63% # Class of executed instruction
system.cpu.op_class::SimdCvt                      216      0.38%     77.01% # Class of executed instruction
system.cpu.op_class::SimdMisc                     388      0.68%     77.69% # Class of executed instruction
system.cpu.op_class::SimdMult                       0      0.00%     77.69% # Class of executed instruction
system.cpu.op_class::SimdMultAcc                    0      0.00%     77.69% # Class of executed instruction
system.cpu.op_class::SimdShift                      0      0.00%     77.69% # Class of executed instruction
system.cpu.op_class::SimdShiftAcc                   0      0.00%     77.69% # Class of executed instruction
system.cpu.op_class::SimdDiv                        0      0.00%     77.69% # Class of executed instruction
system.cpu.op_class::SimdSqrt                       0      0.00%     77.69% # Class of executed instruction
system.cpu.op_class::SimdFloatAdd                   0      0.00%     77.69% # Class of executed instruction
system.cpu.op_class::SimdFloatAlu                   0      0.00%     77.69% # Class of executed instruction
system.cpu.op_class::SimdFloatCmp                   0      0.00%     77.69% # Class of executed instruction
system.cpu.op_class::SimdFloatCvt                   0      0.00%     77.69% # Class of executed instruction
system.cpu.op_class::SimdFloatDiv                   0      0.00%     77.69% # Class of executed instruction
system.cpu.op_class::SimdFloatMisc                  0      0.00%     77.69% # Class of executed instruction
system.cpu.op_class::SimdFloatMult                  0      0.00%     77.69% # Class of executed instruction
system.cpu.op_class::SimdFloatMultAcc               0      0.00%     77.69% # Class of executed instruction
system.cpu.op_class::SimdFloatSqrt                  0      0.00%     77.69% # Class of executed instruction
system.cpu.op_class::SimdReduceAdd                  0      0.00%     77.69% # Class of executed instruction
system.cpu.op_class::SimdReduceAlu                  0      0.00%     77.69% # Class of executed instruction
system.cpu.op_class::SimdReduceCmp                  0      0.00%     77.69% # Class of executed instruction
system.cpu.op_class::SimdFloatReduceAdd             0      0.00%     77.69% # Class of executed instruction
system.cpu.op_class::SimdFloatReduceCmp             0      0.00%     77.69% # Class of executed instruction
system.cpu.op_class::SimdAes                        0      0.00%     77.69% # Class of executed instruction
system.cpu.op_class::SimdAesMix                     0      0.00%     77.69% # Class of executed instruction
system.cpu.op_class::SimdSha1Hash                   0      0.00%     77.69% # Class of executed instruction
system.cpu.op_class::SimdSha1Hash2                  0      0.00%     77.69% # Class of executed instruction
system.cpu.op_class::SimdSha256Hash                 0      0.00%     77.69% # Class of executed instruction
system.cpu.op_class::SimdSha256Hash2                0      0.00%     77.69% # Class of executed instruction
system.cpu.op_class::SimdShaSigma2                  0      0.00%     77.69% # Class of executed instruction
system.cpu.op_class::SimdShaSigma3                  0      0.00%     77.69% # Class of executed instruction
system.cpu.op_class::SimdPredAlu                    0      0.00%     77.69% # Class of executed instruction
system.cpu.op_class::MemRead                     5847     10.23%     87.92% # Class of executed instruction
system.cpu.op_class::MemWrite                    5168      9.04%     96.96% # Class of executed instruction
system.cpu.op_class::FloatMemRead                 210      0.37%     97.33% # Class of executed instruction
system.cpu.op_class::FloatMemWrite               1528      2.67%    100.00% # Class of executed instruction
system.cpu.op_class::IprAccess                      0      0.00%    100.00% # Class of executed instruction
system.cpu.op_class::InstPrefetch                   0      0.00%    100.00% # Class of executed instruction
system.cpu.op_class::total                      57165                       # Class of executed instruction
system.cpu.workload.numSyscalls                    54                       # Number of system calls
system.dynamic_cache.flushTicks                     0                       # Ticks taken to flush
system.dynamic_cache.numFlushes                     0                       # Number of Flushes Taken
system.cache_small.demand_hits::.cpu.inst           98                       # number of demand (read+write) hits
system.cache_small.demand_hits::.cpu.data           43                       # number of demand (read+write) hits
system.cache_small.demand_hits::total             141                       # number of demand (read+write) hits
system.cache_small.overall_hits::.cpu.inst           98                       # number of overall hits
system.cache_small.overall_hits::.cpu.data           43                       # number of overall hits
system.cache_small.overall_hits::total            141                       # number of overall hits
system.cache_small.demand_misses::.cpu.inst          868                       # number of demand (read+write) misses
system.cache_small.demand_misses::.cpu.data          494                       # number of demand (read+write) misses
system.cache_small.demand_misses::total          1362                       # number of demand (read+write) misses
system.cache_small.overall_misses::.cpu.inst          868                       # number of overall misses
system.cache_small.overall_misses::.cpu.data          494                       # number of overall misses
system.cache_small.overall_misses::total         1362                       # number of overall misses
system.cache_small.demand_miss_latency::.cpu.inst     52327000                       # number of demand (read+write) miss cycles
system.cache_small.demand_miss_latency::.cpu.data     29094000                       # number of demand (read+write) miss cycles
system.cache_small.demand_miss_latency::total     81421000                       # number of demand (read+write) miss cycles
system.cache_small.overall_miss_latency::.cpu.inst     52327000                       # number of overall miss cycles
system.cache_small.overall_miss_latency::.cpu.data     29094000                       # number of overall miss cycles
system.cache_small.overall_miss_latency::total     81421000                       # number of overall miss cycles
system.cache_small.demand_accesses::.cpu.inst          966                       # number of demand (read+write) accesses
system.cache_small.demand_accesses::.cpu.data          537                       # number of demand (read+write) accesses
system.cache_small.demand_accesses::total         1503                       # number of demand (read+write) accesses
system.cache_small.overall_accesses::.cpu.inst          966                       # number of overall (read+write) accesses
system.cache_small.overall_accesses::.cpu.data          537                       # number of overall (read+write) accesses
system.cache_small.overall_accesses::total         1503                       # number of overall (read+write) accesses
system.cache_small.demand_miss_rate::.cpu.inst     0.898551                       # miss rate for demand accesses
system.cache_small.demand_miss_rate::.cpu.data     0.919926                       # miss rate for demand accesses
system.cache_small.demand_miss_rate::total     0.906188                       # miss rate for demand accesses
system.cache_small.overall_miss_rate::.cpu.inst     0.898551                       # miss rate for overall accesses
system.cache_small.overall_miss_rate::.cpu.data     0.919926                       # miss rate for overall accesses
system.cache_small.overall_miss_rate::total     0.906188                       # miss rate for overall accesses
system.cache_small.demand_avg_miss_latency::.cpu.inst 60284.562212                       # average overall miss latency
system.cache_small.demand_avg_miss_latency::.cpu.data 58894.736842                       # average overall miss latency
system.cache_small.demand_avg_miss_latency::total 59780.469897                       # average overall miss latency
system.cache_small.overall_avg_miss_latency::.cpu.inst 60284.562212                       # average overall miss latency
system.cache_small.overall_avg_miss_latency::.cpu.data 58894.736842                       # average overall miss latency
system.cache_small.overall_avg_miss_latency::total 59780.469897                       # average overall miss latency
system.cache_small.blocked_cycles::no_mshrs            0                       # number of cycles access was blocked
system.cache_small.blocked_cycles::no_targets            0                       # number of cycles access was blocked
system.cache_small.blocked::no_mshrs                0                       # number of cycles access was blocked
system.cache_small.blocked::no_targets              0                       # number of cycles access was blocked
system.cache_small.avg_blocked_cycles::no_mshrs          nan                       # average number of cycles each access was blocked
system.cache_small.avg_blocked_cycles::no_targets          nan                       # average number of cycles each access was blocked
system.cache_small.writebacks::.writebacks           21                       # number of writebacks
system.cache_small.writebacks::total               21                       # number of writebacks
system.cache_small.demand_mshr_misses::.cpu.inst          868                       # number of demand (read+write) MSHR misses
system.cache_small.demand_mshr_misses::.cpu.data          494                       # number of demand (read+write) MSHR misses
system.cache_small.demand_mshr_misses::total         1362                       # number of demand (read+write) MSHR misses
system.cache_small.overall_mshr_misses::.cpu.inst          868                       # number of overall MSHR misses
system.cache_small.overall_mshr_misses::.cpu.data          494                       # number of overall MSHR misses
system.cache_small.overall_mshr_misses::total         1362                       # number of overall MSHR misses
system.cache_small.demand_mshr_miss_latency::.cpu.inst     50591000                       # number of demand (read+write) MSHR miss cycles
system.cache_small.demand_mshr_miss_latency::.cpu.data     28106000                       # number of demand (read+write) MSHR miss cycles
system.cache_small.demand_mshr_miss_latency::total     78697000                       # number of demand (read+write) MSHR miss cycles
system.cache_small.overall_mshr_miss_latency::.cpu.inst     50591000                       # number of overall MSHR miss cycles
system.cache_small.overall_mshr_miss_latency::.cpu.data     28106000                       # number of overall MSHR miss cycles
system.cache_small.overall_mshr_miss_latency::total     78697000                       # number of overall MSHR miss cycles
system.cache_small.demand_mshr_miss_rate::.cpu.inst     0.898551                       # mshr miss rate for demand accesses
system.cache_small.demand_mshr_miss_rate::.cpu.data     0.919926                       # mshr miss rate for demand accesses
system.cache_small.demand_mshr_miss_rate::total     0.906188                       # mshr miss rate for demand accesses
system.cache_small.overall_mshr_miss_rate::.cpu.inst     0.898551                       # mshr miss rate for overall accesses
system.cache_small.overall_mshr_miss_rate::.cpu.data     0.919926                       # mshr miss rate for overall accesses
system.cache_small.overall_mshr_miss_rate::total     0.906188                       # mshr miss rate for overall accesses
system.cache_small.demand_avg_mshr_miss_latency::.cpu.inst 58284.562212                       # average overall mshr miss latency
system.cache_small.demand_avg_mshr_miss_latency::.cpu.data 56894.736842                       # average overall mshr miss latency
system.cache_small.demand_avg_mshr_miss_latency::total 57780.469897                       # average overall mshr miss latency
system.cache_small.overall_avg_mshr_miss_latency::.cpu.inst 58284.562212                       # average overall mshr miss latency
system.cache_small.overall_avg_mshr_miss_latency::.cpu.data 56894.736842                       # average overall mshr miss latency
system.cache_small.overall_avg_mshr_miss_latency::total 57780.469897                       # average overall mshr miss latency
system.cache_small.replacements                   389                       # number of replacements
system.cache_small.ReadReq_hits::.cpu.inst           98                       # number of ReadReq hits
system.cache_small.ReadReq_hits::.cpu.data           43                       # number of ReadReq hits
system.cache_small.ReadReq_hits::total            141                       # number of ReadReq hits
system.cache_small.ReadReq_misses::.cpu.inst          868                       # number of ReadReq misses
system.cache_small.ReadReq_misses::.cpu.data          494                       # number of ReadReq misses
system.cache_small.ReadReq_misses::total         1362                       # number of ReadReq misses
system.cache_small.ReadReq_miss_latency::.cpu.inst     52327000                       # number of ReadReq miss cycles
system.cache_small.ReadReq_miss_latency::.cpu.data     29094000                       # number of ReadReq miss cycles
system.cache_small.ReadReq_miss_latency::total     81421000                       # number of ReadReq miss cycles
system.cache_small.ReadReq_accesses::.cpu.inst          966                       # number of ReadReq accesses(hits+misses)
system.cache_small.ReadReq_accesses::.cpu.data          537                       # number of ReadReq accesses(hits+misses)
system.cache_small.ReadReq_accesses::total         1503                       # number of ReadReq accesses(hits+misses)
system.cache_small.ReadReq_miss_rate::.cpu.inst     0.898551                       # miss rate for ReadReq accesses
system.cache_small.ReadReq_miss_rate::.cpu.data     0.919926                       # miss rate for ReadReq accesses
system.cache_small.ReadReq_miss_rate::total     0.906188                       # miss rate for ReadReq accesses
system.cache_small.ReadReq_avg_miss_latency::.cpu.inst 60284.562212                       # average ReadReq miss latency
system.cache_small.ReadReq_avg_miss_latency::.cpu.data 58894.736842                       # average ReadReq miss latency
system.cache_small.ReadReq_avg_miss_latency::total 59780.469897                       # average ReadReq miss latency
system.cache_small.ReadReq_mshr_misses::.cpu.inst          868                       # number of ReadReq MSHR misses
system.cache_small.ReadReq_mshr_misses::.cpu.data          494                       # number of ReadReq MSHR misses
system.cache_small.ReadReq_mshr_misses::total         1362                       # number of ReadReq MSHR misses
system.cache_small.ReadReq_mshr_miss_latency::.cpu.inst     50591000                       # number of ReadReq MSHR miss cycles
system.cache_small.ReadReq_mshr_miss_latency::.cpu.data     28106000                       # number of ReadReq MSHR miss cycles
system.cache_small.ReadReq_mshr_miss_latency::total     78697000                       # number of ReadReq MSHR miss cycles
system.cache_small.ReadReq_mshr_miss_rate::.cpu.inst     0.898551                       # mshr miss rate for ReadReq accesses
system.cache_small.ReadReq_mshr_miss_rate::.cpu.data     0.919926                       # mshr miss rate for ReadReq accesses
system.cache_small.ReadReq_mshr_miss_rate::total     0.906188                       # mshr miss rate for ReadReq accesses
system.cache_small.ReadReq_avg_mshr_miss_latency::.cpu.inst 58284.562212                       # average ReadReq mshr miss latency
system.cache_small.ReadReq_avg_mshr_miss_latency::.cpu.data 56894.736842                       # average ReadReq mshr miss latency
system.cache_small.ReadReq_avg_mshr_miss_latency::total 57780.469897                       # average ReadReq mshr miss latency
system.cache_small.WritebackDirty_hits::.writebacks          151                       # number of WritebackDirty hits
system.cache_small.WritebackDirty_hits::total          151                       # number of WritebackDirty hits
system.cache_small.WritebackDirty_accesses::.writebacks          151                       # number of WritebackDirty accesses(hits+misses)
system.cache_small.WritebackDirty_accesses::total          151                       # number of WritebackDirty accesses(hits+misses)
system.cache_small.power_state.pwrStateResidencyTicks::UNDEFINED    212066000                       # Cumulative time (in ticks) in various power states
system.cache_small.tags.tagsinuse          605.363125                       # Cycle average of tags in use
system.cache_small.tags.total_refs               1654                       # Total number of references to valid blocks.
system.cache_small.tags.sampled_refs             1392                       # Sample count of references to valid blocks.
system.cache_small.tags.avg_refs             1.188218                       # Average number of references to valid blocks.
system.cache_small.tags.warmup_cycle            76000                       # Cycle when the warmup percentage was hit.
system.cache_small.tags.occ_blocks::.writebacks     7.218479                       # Average occupied blocks per requestor
system.cache_small.tags.occ_blocks::.cpu.inst   334.885386                       # Average occupied blocks per requestor
system.cache_small.tags.occ_blocks::.cpu.data   263.259259                       # Average occupied blocks per requestor
system.cache_small.tags.occ_percent::.writebacks     0.003525                       # Average percentage of cache occupancy
system.cache_small.tags.occ_percent::.cpu.inst     0.163518                       # Average percentage of cache occupancy
system.cache_small.tags.occ_percent::.cpu.data     0.128545                       # Average percentage of cache occupancy
system.cache_small.tags.occ_percent::total     0.295587                       # Average percentage of cache occupancy
system.cache_small.tags.occ_task_id_blocks::1024         1003                       # Occupied blocks per task id
system.cache_small.tags.age_task_id_blocks_1024::0           27                       # Occupied blocks per task id
system.cache_small.tags.age_task_id_blocks_1024::1          470                       # Occupied blocks per task id
system.cache_small.tags.age_task_id_blocks_1024::2          506                       # Occupied blocks per task id
system.cache_small.tags.occ_task_id_percent::1024     0.489746                       # Percentage of cache occupancy per task id
system.cache_small.tags.tag_accesses             3046                       # Number of tag accesses
system.cache_small.tags.data_accesses            3046                       # Number of data accesses
system.cache_small.tags.power_state.pwrStateResidencyTicks::UNDEFINED    212066000                       # Cumulative time (in ticks) in various power states
system.icache.demand_hits::.cpu.inst            37617                       # number of demand (read+write) hits
system.icache.demand_hits::total                37617                       # number of demand (read+write) hits
system.icache.overall_hits::.cpu.inst           37617                       # number of overall hits
system.icache.overall_hits::total               37617                       # number of overall hits
system.icache.demand_misses::.cpu.inst           1058                       # number of demand (read+write) misses
system.icache.demand_misses::total               1058                       # number of demand (read+write) misses
system.icache.overall_misses::.cpu.inst          1058                       # number of overall misses
system.icache.overall_misses::total              1058                       # number of overall misses
system.icache.demand_miss_latency::.cpu.inst     70399000                       # number of demand (read+write) miss cycles
system.icache.demand_miss_latency::total     70399000                       # number of demand (read+write) miss cycles
system.icache.overall_miss_latency::.cpu.inst     70399000                       # number of overall miss cycles
system.icache.overall_miss_latency::total     70399000                       # number of overall miss cycles
system.icache.demand_accesses::.cpu.inst        38675                       # number of demand (read+write) accesses
system.icache.demand_accesses::total            38675                       # number of demand (read+write) accesses
system.icache.overall_accesses::.cpu.inst        38675                       # number of overall (read+write) accesses
system.icache.overall_accesses::total           38675                       # number of overall (read+write) accesses
system.icache.demand_miss_rate::.cpu.inst     0.027356                       # miss rate for demand accesses
system.icache.demand_miss_rate::total        0.027356                       # miss rate for demand accesses
system.icache.overall_miss_rate::.cpu.inst     0.027356                       # miss rate for overall accesses
system.icache.overall_miss_rate::total       0.027356                       # miss rate for overall accesses
system.icache.demand_avg_miss_latency::.cpu.inst 66539.697543                       # average overall miss latency
system.icache.demand_avg_miss_latency::total 66539.697543                       # average overall miss latency
system.icache.overall_avg_miss_latency::.cpu.inst 66539.697543                       # average overall miss latency
system.icache.overall_avg_miss_latency::total 66539.697543                       # average overall miss latency
system.icache.blocked_cycles::no_mshrs              0                       # number of cycles access was blocked
system.icache.blocked_cycles::no_targets            0                       # number of cycles access was blocked
system.icache.blocked::no_mshrs                     0                       # number of cycles access was blocked
system.icache.blocked::no_targets                   0                       # number of cycles access was blocked
system.icache.avg_blocked_cycles::no_mshrs          nan                       # average number of cycles each access was blocked
system.icache.avg_blocked_cycles::no_targets          nan                       # average number of cycles each access was blocked
system.icache.demand_mshr_misses::.cpu.inst         1058                       # number of demand (read+write) MSHR misses
system.icache.demand_mshr_misses::total          1058                       # number of demand (read+write) MSHR misses
system.icache.overall_mshr_misses::.cpu.inst         1058                       # number of overall MSHR misses
system.icache.overall_mshr_misses::total         1058                       # number of overall MSHR misses
system.icache.demand_mshr_miss_latency::.cpu.inst     68283000                       # number of demand (read+write) MSHR miss cycles
system.icache.demand_mshr_miss_latency::total     68283000                       # number of demand (read+write) MSHR miss cycles
system.icache.overall_mshr_miss_latency::.cpu.inst     68283000                       # number of overall MSHR miss cycles
system.icache.overall_mshr_miss_latency::total     68283000                       # number of overall MSHR miss cycles
system.icache.demand_mshr_miss_rate::.cpu.inst     0.027356                       # mshr miss rate for demand accesses
system.icache.demand_mshr_miss_rate::total     0.027356                       # mshr miss rate for demand accesses
system.icache.overall_mshr_miss_rate::.cpu.inst     0.027356                       # mshr miss rate for overall accesses
system.icache.overall_mshr_miss_rate::total     0.027356                       # mshr miss rate for overall accesses
system.icache.demand_avg_mshr_miss_latency::.cpu.inst 64539.697543                       # average overall mshr miss latency
system.icache.demand_avg_mshr_miss_latency::total 64539.697543                       # average overall mshr miss latency
system.icache.overall_avg_mshr_miss_latency::.cpu.inst 64539.697543                       # average overall mshr miss latency
system.icache.overall_avg_mshr_miss_latency::total 64539.697543                       # average overall mshr miss latency
system.icache.replacements                        804                       # number of replacements
system.icache.ReadReq_hits::.cpu.inst           37617                       # number of ReadReq hits
system.icache.ReadReq_hits::total               37617                       # number of ReadReq hits
system.icache.ReadReq_misses::.cpu.inst          1058                       # number of ReadReq misses
system.icache.ReadReq_misses::total              1058                       # number of ReadReq misses
system.icache.ReadReq_miss_latency::.cpu.inst     70399000                       # number of ReadReq miss cycles
system.icache.ReadReq_miss_latency::total     70399000                       # number of ReadReq miss cycles
system.icache.ReadReq_accesses::.cpu.inst        38675                       # number of ReadReq accesses(hits+misses)
system.icache.ReadReq_accesses::total           38675                       # number of ReadReq accesses(hits+misses)
system.icache.ReadReq_miss_rate::.cpu.inst     0.027356                       # miss rate for ReadReq accesses
system.icache.ReadReq_miss_rate::total       0.027356                       # miss rate for ReadReq accesses
system.icache.ReadReq_avg_miss_latency::.cpu.inst 66539.697543                       # average ReadReq miss latency
system.icache.ReadReq_avg_miss_latency::total 66539.697543                       # average ReadReq miss latency
system.icache.ReadReq_mshr_misses::.cpu.inst         1058                       # number of ReadReq MSHR misses
system.icache.ReadReq_mshr_misses::total         1058                       # number of ReadReq MSHR misses
system.icache.ReadReq_mshr_miss_latency::.cpu.inst     68283000                       # number of ReadReq MSHR miss cycles
system.icache.ReadReq_mshr_miss_latency::total     68283000                       # number of ReadReq MSHR miss cycles
system.icache.ReadReq_mshr_miss_rate::.cpu.inst     0.027356                       # mshr miss rate for ReadReq accesses
system.icache.ReadReq_mshr_miss_rate::total     0.027356                       # mshr miss rate for ReadReq accesses
system.icache.ReadReq_avg_mshr_miss_latency::.cpu.inst 64539.697543                       # average ReadReq mshr miss latency
system.icache.ReadReq_avg_mshr_miss_latency::total 64539.697543                       # average ReadReq mshr miss latency
system.icache.power_state.pwrStateResidencyTicks::UNDEFINED    212066000                       # Cumulative time (in ticks) in various power states
system.icache.tags.tagsinuse               197.198981                       # Cycle average of tags in use
system.icache.tags.total_refs                   38675                       # Total number of references to valid blocks.
system.icache.tags.sampled_refs                  1058                       # Sample count of references to valid blocks.
system.icache.tags.avg_refs                 36.554820                       # Average number of references to valid blocks.
system.icache.tags.warmup_cycle                 82000                       # Cycle when the warmup percentage was hit.
system.icache.tags.occ_blocks::.cpu.inst   197.198981                       # Average occupied blocks per requestor
system.icache.tags.occ_percent::.cpu.inst     0.770309                       # Average percentage of cache occupancy
system.icache.tags.occ_percent::total        0.770309                       # Average percentage of cache occupancy
system.icache.tags.occ_task_id_blocks::1024          254                       # Occupied blocks per task id
system.icache.tags.age_task_id_blocks_1024::0           22                       # Occupied blocks per task id
system.icache.tags.age_task_id_blocks_1024::1          207                       # Occupied blocks per task id
system.icache.tags.age_task_id_blocks_1024::2           25                       # Occupied blocks per task id
system.icache.tags.occ_task_id_percent::1024     0.992188                       # Percentage of cache occupancy per task id
system.icache.tags.tag_accesses                 39733                       # Number of tag accesses
system.icache.tags.data_accesses                39733                       # Number of data accesses
system.icache.tags.power_state.pwrStateResidencyTicks::UNDEFINED    212066000                       # Cumulative time (in ticks) in various power states
system.membus.trans_dist::ReadReq                1362                       # Transaction distribution
system.membus.trans_dist::ReadResp               1362                       # Transaction distribution
system.membus.trans_dist::WritebackDirty           21                       # Transaction distribution
system.membus.pkt_count_system.cache_small.mem_side::system.mem_ctrl.port         2745                       # Packet count per connected master and slave (bytes)
system.membus.pkt_count_system.cache_small.mem_side::total         2745                       # Packet count per connected master and slave (bytes)
system.membus.pkt_count::total                   2745                       # Packet count per connected master and slave (bytes)
system.membus.pkt_size_system.cache_small.mem_side::system.mem_ctrl.port        88512                       # Cumulative packet size per connected master and slave (bytes)
system.membus.pkt_size_system.cache_small.mem_side::total        88512                       # Cumulative packet size per connected master and slave (bytes)
system.membus.pkt_size::total                   88512                       # Cumulative packet size per connected master and slave (bytes)
system.membus.reqLayer2.occupancy             1467000                       # Layer occupancy (ticks)
system.membus.reqLayer2.utilization               0.7                       # Layer utilization (%)
system.membus.respLayer1.occupancy            7265250                       # Layer occupancy (ticks)
system.membus.respLayer1.utilization              3.4                       # Layer utilization (%)
system.membus.power_state.pwrStateResidencyTicks::UNDEFINED    212066000                       # Cumulative time (in ticks) in various power states
system.mem_ctrl.bytes_read::.cpu.inst           55552                       # Number of bytes read from this memory
system.mem_ctrl.bytes_read::.cpu.data           31616                       # Number of bytes read from this memory
system.mem_ctrl.bytes_read::total               87168                       # Number of bytes read from this memory
system.mem_ctrl.bytes_inst_read::.cpu.inst        55552                       # Number of instructions bytes read from this memory
system.mem_ctrl.bytes_inst_read::total          55552                       # Number of instructions bytes read from this memory
system.mem_ctrl.bytes_written::.writebacks         1344                       # Number of bytes written to this memory
system.mem_ctrl.bytes_written::total             1344                       # Number of bytes written to this memory
system.mem_ctrl.num_reads::.cpu.inst              868                       # Number of read requests responded to by this memory
system.mem_ctrl.num_reads::.cpu.data              494                       # Number of read requests responded to by this memory
system.mem_ctrl.num_reads::total                 1362                       # Number of read requests responded to by this memory
system.mem_ctrl.num_writes::.writebacks            21                       # Number of write requests responded to by this memory
system.mem_ctrl.num_writes::total                  21                       # Number of write requests responded to by this memory
system.mem_ctrl.bw_read::.cpu.inst          261956183                       # Total read bandwidth from this memory (bytes/s)
system.mem_ctrl.bw_read::.cpu.data          149085662                       # Total read bandwidth from this memory (bytes/s)
system.mem_ctrl.bw_read::total              411041845                       # Total read bandwidth from this memory (bytes/s)
system.mem_ctrl.bw_inst_read::.cpu.inst     261956183                       # Instruction read bandwidth from this memory (bytes/s)
system.mem_ctrl.bw_inst_read::total         261956183                       # Instruction read bandwidth from this memory (bytes/s)
system.mem_ctrl.bw_write::.writebacks         6337650                       # Write bandwidth from this memory (bytes/s)
system.mem_ctrl.bw_write::total               6337650                       # Write bandwidth from this memory (bytes/s)
system.mem_ctrl.bw_total::.writebacks         6337650                       # Total bandwidth to/from this memory (bytes/s)
system.mem_ctrl.bw_total::.cpu.inst         261956183                       # Total bandwidth to/from this memory (bytes/s)
system.mem_ctrl.bw_total::.cpu.data         149085662                       # Total bandwidth to/from this memory (bytes/s)
system.mem_ctrl.bw_total::total             417379495                       # Total bandwidth to/from this memory (bytes/s)
system.mem_ctrl.avgPriority_.writebacks::samples        21.00                       # Average QoS priority value for accepted requests
system.mem_ctrl.avgPriority_.cpu.inst::samples       868.00                       # Average QoS priority value for accepted requests
system.mem_ctrl.avgPriority_.cpu.data::samples       490.00                       # Average QoS priority value for accepted requests
system.mem_ctrl.priorityMinLatency       0.000000018750                       # per QoS priority minimum request to response latency (s)
system.mem_ctrl.priorityMaxLatency       0.000000561500                       # per QoS priority maximum request to response latency (s)
system.mem_ctrl.numReadWriteTurnArounds             0                       # Number of turnarounds from READ to WRITE
system.mem_ctrl.numWriteReadTurnArounds             0                       # Number of turnarounds from WRITE to READ
system.mem_ctrl.numStayReadState                 2790                       # Number of times bus staying in READ state
system.mem_ctrl.numStayWriteState                   0                       # Number of times bus staying in WRITE state
system.mem_ctrl.readReqs                         1362                       # Number of read requests accepted
system.mem_ctrl.writeReqs                          21                       # Number of write requests accepted
system.mem_ctrl.readBursts                       1362                       # Number of DRAM read bursts, including those serviced by the write queue
system.mem_ctrl.writeBursts                        21                       # Number of DRAM write bursts, including those merged in the write queue
system.mem_ctrl.servicedByWrQ                       4                       # Number of DRAM read bursts serviced by the write queue
system.mem_ctrl.mergedWrBursts                      0                       # Number of DRAM write bursts merged with an existing one
system.mem_ctrl.neitherReadNorWriteReqs             0                       # Number of requests that are neither read nor write
system.mem_ctrl.perBankRdBursts::0                 77                       # Per bank write bursts
system.mem_ctrl.perBankRdBursts::1                 96                       # Per bank write bursts
system.mem_ctrl.perBankRdBursts::2                101                       # Per bank write bursts
system.mem_ctrl.perBankRdBursts::3                 48                       # Per bank write bursts
system.mem_ctrl.perBankRdBursts::4                158                       # Per bank write bursts
system.mem_ctrl.perBankRdBursts::5                208                       # Per bank write bursts
system.mem_ctrl.perBankRdBursts::6                121                       # Per bank write bursts
system.mem_ctrl.perBankRdBursts::7                 80                       # Per bank write bursts
system.mem_ctrl.perBankRdBursts::8                 86                       # Per bank write bursts
system.mem_ctrl.perBankRdBursts::9                 59                       # Per bank write bursts
system.mem_ctrl.perBankRdBursts::10                12                       # Per bank write bursts
system.mem_ctrl.perBankRdBursts::11                28                       # Per bank write bursts
system.mem_ctrl.perBankRdBursts::12                14                       # Per bank write bursts
system.mem_ctrl.perBankRdBursts::13                36                       # Per bank write bursts
system.mem_ctrl.perBankRdBursts::14               136                       # Per bank write bursts
system.mem_ctrl.perBankRdBursts::15                98                       # Per bank write bursts
system.mem_ctrl.perBankWrBursts::0                  0                       # Per bank write bursts
system.mem_ctrl.perBankWrBursts::1                  0                       # Per bank write bursts
system.mem_ctrl.perBankWrBursts::2                  0                       # Per bank write bursts
system.mem_ctrl.perBankWrBursts::3                  0                       # Per bank write bursts
system.mem_ctrl.perBankWrBursts::4                  0                       # Per bank write bursts
system.mem_ctrl.perBankWrBursts::5                  0                       # Per bank write bursts
system.mem_ctrl.perBankWrBursts::6                  0                       # Per bank write bursts
system.mem_ctrl.perBankWrBursts::7                  0                       # Per bank write bursts
system.mem_ctrl.perBankWrBursts::8                  0                       # Per bank write bursts
system.mem_ctrl.perBankWrBursts::9                  0                       # Per bank write bursts
system.mem_ctrl.perBankWrBursts::10                 0                       # Per bank write bursts
system.mem_ctrl.perBankWrBursts::11                 0                       # Per bank write bursts
system.mem_ctrl.perBankWrBursts::12                 0                       # Per bank write bursts
system.mem_ctrl.perBankWrBursts::13                 0                       # Per bank write bursts
system.mem_ctrl.perBankWrBursts::14                 0                       # Per bank write bursts
system.mem_ctrl.perBankWrBursts::15                 0                       # Per bank write bursts
system.mem_ctrl.avgRdQLen                        1.00                       # Average read queue length when enqueuing
system.mem_ctrl.avgWrQLen                        3.66                       # Average write queue length when enqueuing
system.mem_ctrl.totQLat                      10596500                       # Total ticks spent queuing
system.mem_ctrl.totBusLat                     6790000                       # Total ticks spent in databus transfers
system.mem_ctrl.totMemAccLat                 36059000                       # Total ticks spent from burst creation until serviced by the DRAM
system.mem_ctrl.avgQLat                       7803.02                       # Average queueing delay per DRAM burst
system.mem_ctrl.avgBusLat                     5000.00                       # Average bus latency per DRAM burst
system.mem_ctrl.avgMemAccLat                 26553.02                       # Average memory access latency per DRAM burst
system.mem_ctrl.numRdRetry                          0                       # Number of times read queue was full causing retry
system.mem_ctrl.numWrRetry                          0                       # Number of times write queue was full causing retry
system.mem_ctrl.readRowHits                      1002                       # Number of row buffer hits during reads
system.mem_ctrl.writeRowHits                        0                       # Number of row buffer hits during writes
system.mem_ctrl.readRowHitRate                  73.78                       # Row buffer hit rate for reads
system.mem_ctrl.writeRowHitRate                  0.00                       # Row buffer hit rate for writes
system.mem_ctrl.readPktSize::0                      0                       # Read request sizes (log2)
system.mem_ctrl.readPktSize::1                      0                       # Read request sizes (log2)
system.mem_ctrl.readPktSize::2                      0                       # Read request sizes (log2)
system.mem_ctrl.readPktSize::3                      0                       # Read request sizes (log2)
system.mem_ctrl.readPktSize::4                      0                       # Read request sizes (log2)
system.mem_ctrl.readPktSize::5                      0                       # Read request sizes (log2)
system.mem_ctrl.readPktSize::6                   1362                       # Read request sizes (log2)
system.mem_ctrl.writePktSize::0                     0                       # Write request sizes (log2)
system.mem_ctrl.writePktSize::1                     0                       # Write request sizes (log2)
system.mem_ctrl.writePktSize::2                     0                       # Write request sizes (log2)
system.mem_ctrl.writePktSize::3                     0                       # Write request sizes (log2)
system.mem_ctrl.writePktSize::4                     0                       # Write request sizes (log2)
system.mem_ctrl.writePktSize::5                     0                       # Write request sizes (log2)
system.mem_ctrl.writePktSize::6                    21                       # Write request sizes (log2)
system.mem_ctrl.rdQLenPdf::0                     1357                       # What read queue length does an incoming req see
system.mem_ctrl.rdQLenPdf::1                        1                       # What read queue length does an incoming req see
system.mem_ctrl.rdQLenPdf::2                        0                       # What read queue length does an incoming req see
system.mem_ctrl.rdQLenPdf::3                        0                       # What read queue length does an incoming req see
system.mem_ctrl.rdQLenPdf::4                        0                       # What read queue length does an incoming req see
system.mem_ctrl.rdQLenPdf::5                        0                       # What read queue length does an incoming req see
system.mem_ctrl.rdQLenPdf::6                        0                       # What read queue length does an incoming req see
system.mem_ctrl.rdQLenPdf::7                        0                       # What read queue length does an incoming req see
system.mem_ctrl.rdQLenPdf::8                        0                       # What read queue length does an incoming req see
system.mem_ctrl.rdQLenPdf::9                        0                       # What read queue length does an incoming req see
system.mem_ctrl.rdQLenPdf::10                       0                       # What read queue length does an incoming req see
system.mem_ctrl.rdQLenPdf::11                       0                       # What read queue length does an incoming req see
system.mem_ctrl.rdQLenPdf::12                       0                       # What read queue length does an incoming req see
system.mem_ctrl.rdQLenPdf::13                       0                       # What read queue length does an incoming req see
system.mem_ctrl.rdQLenPdf::14                       0                       # What read queue length does an incoming req see
system.mem_ctrl.rdQLenPdf::15                       0                       # What read queue length does an incoming req see
system.mem_ctrl.rdQLenPdf::16                       0                       # What read queue length does an incoming req see
system.mem_ctrl.rdQLenPdf::17                       0                       # What read queue length does an incoming req see
system.mem_ctrl.rdQLenPdf::18                       0                       # What read queue length does an incoming req see
system.mem_ctrl.rdQLenPdf::19                       0                       # What read queue length does an incoming req see
system.mem_ctrl.rdQLenPdf::20                       0                       # What read queue length does an incoming req see
system.mem_ctrl.rdQLenPdf::21                       0                       # What read queue length does an incoming req see
system.mem_ctrl.rdQLenPdf::22                       0                       # What read queue length does an incoming req see
system.mem_ctrl.rdQLenPdf::23                       0                       # What read queue length does an incoming req see
system.mem_ctrl.rdQLenPdf::24                       0                       # What read queue length does an incoming req see
system.mem_ctrl.rdQLenPdf::25                       0                       # What read queue length does an incoming req see
system.mem_ctrl.rdQLenPdf::26                       0                       # What read queue length does an incoming req see
system.mem_ctrl.rdQLenPdf::27                       0                       # What read queue length does an incoming req see
system.mem_ctrl.rdQLenPdf::28                       0                       # What read queue length does an incoming req see
system.mem_ctrl.rdQLenPdf::29                       0                       # What read queue length does an incoming req see
system.mem_ctrl.rdQLenPdf::30                       0                       # What read queue length does an incoming req see
system.mem_ctrl.rdQLenPdf::31                       0                       # What read queue length does an incoming req see
system.mem_ctrl.wrQLenPdf::0                        1                       # What write queue length does an incoming req see
system.mem_ctrl.wrQLenPdf::1                        1                       # What write queue length does an incoming req see
system.mem_ctrl.wrQLenPdf::2                        1                       # What write queue length does an incoming req see
system.mem_ctrl.wrQLenPdf::3                        1                       # What write queue length does an incoming req see
system.mem_ctrl.wrQLenPdf::4                        1                       # What write queue length does an incoming req see
system.mem_ctrl.wrQLenPdf::5                        1                       # What write queue length does an incoming req see
system.mem_ctrl.wrQLenPdf::6                        1                       # What write queue length does an incoming req see
system.mem_ctrl.wrQLenPdf::7                        1                       # What write queue length does an incoming req see
system.mem_ctrl.wrQLenPdf::8                        1                       # What write queue length does an incoming req see
system.mem_ctrl.wrQLenPdf::9                        1                       # What write queue length does an incoming req see
system.mem_ctrl.wrQLenPdf::10                       1                       # What write queue length does an incoming req see
system.mem_ctrl.wrQLenPdf::11                       1                       # What write queue length does an incoming req see
system.mem_ctrl.wrQLenPdf::12                       1                       # What write queue length does an incoming req see
system.mem_ctrl.wrQLenPdf::13                       1                       # What write queue length does an incoming req see
system.mem_ctrl.wrQLenPdf::14                       1                       # What write queue length does an incoming req see
system.mem_ctrl.wrQLenPdf::15                       1                       # What write queue length does an incoming req see
system.mem_ctrl.wrQLenPdf::16                       1                       # What write queue length does an incoming req see
system.mem_ctrl.wrQLenPdf::17                       1                       # What write queue length does an incoming req see
system.mem_ctrl.wrQLenPdf::18                       1                       # What write queue length does an incoming req see
system.mem_ctrl.wrQLenPdf::19                       1                       # What write queue length does an incoming req see
system.mem_ctrl.wrQLenPdf::20                       1                       # What write queue length does an incoming req see
system.mem_ctrl.wrQLenPdf::21                       0                       # What write queue length does an incoming req see
system.mem_ctrl.wrQLenPdf::22                       0                       # What write queue length does an incoming req see
system.mem_ctrl.wrQLenPdf::23                       0                       # What write queue length does an incoming req see
system.mem_ctrl.wrQLenPdf::24                       0                       # What write queue length does an incoming req see
system.mem_ctrl.wrQLenPdf::25                       0                       # What write queue length does an incoming req see
system.mem_ctrl.wrQLenPdf::26                       0                       # What write queue length does an incoming req see
system.mem_ctrl.wrQLenPdf::27                       0                       # What write queue length does an incoming req see
system.mem_ctrl.wrQLenPdf::28                       0                       # What write queue length does an incoming req see
system.mem_ctrl.wrQLenPdf::29                       0                       # What write queue length does an incoming req see
system.mem_ctrl.wrQLenPdf::30                       0                       # What write queue length does an incoming req see
system.mem_ctrl.wrQLenPdf::31                       0                       # What write queue length does an incoming req see
system.mem_ctrl.wrQLenPdf::32                       0                       # What write queue length does an incoming req see
system.mem_ctrl.wrQLenPdf::33                       0                       # What write queue length does an incoming req see
system.mem_ctrl.wrQLenPdf::34                       0                       # What write queue length does an incoming req see
system.mem_ctrl.wrQLenPdf::35                       0                       # What write queue length does an incoming req see
system.mem_ctrl.wrQLenPdf::36                       0                       # What write queue length does an incoming req see
system.mem_ctrl.wrQLenPdf::37                       0                       # What write queue length does an incoming req see
system.mem_ctrl.wrQLenPdf::38                       0                       # What write queue length does an incoming req see
system.mem_ctrl.wrQLenPdf::39                       0                       # What write queue length does an incoming req see
system.mem_ctrl.wrQLenPdf::40                       0                       # What write queue length does an incoming req see
system.mem_ctrl.wrQLenPdf::41                       0                       # What write queue length does an incoming req see
system.mem_ctrl.wrQLenPdf::42                       0                       # What write queue length does an incoming req see
system.mem_ctrl.wrQLenPdf::43                       0                       # What write queue length does an incoming req see
system.mem_ctrl.wrQLenPdf::44                       0                       # What write queue length does an incoming req see
system.mem_ctrl.wrQLenPdf::45                       0                       # What write queue length does an incoming req see
system.mem_ctrl.wrQLenPdf::46                       0                       # What write queue length does an incoming req see
system.mem_ctrl.wrQLenPdf::47                       0                       # What write queue length does an incoming req see
system.mem_ctrl.wrQLenPdf::48                       0                       # What write queue length does an incoming req see
system.mem_ctrl.wrQLenPdf::49                       0                       # What write queue length does an incoming req see
system.mem_ctrl.wrQLenPdf::50                       0                       # What write queue length does an incoming req see
system.mem_ctrl.wrQLenPdf::51                       0                       # What write queue length does an incoming req see
system.mem_ctrl.wrQLenPdf::52                       0                       # What write queue length does an incoming req see
system.mem_ctrl.wrQLenPdf::53                       0                       # What write queue length does an incoming req see
system.mem_ctrl.wrQLenPdf::54                       0                       # What write queue length does an incoming req see
system.mem_ctrl.wrQLenPdf::55                       0                       # What write queue length does an incoming req see
system.mem_ctrl.wrQLenPdf::56                       0                       # What write queue length does an incoming req see
system.mem_ctrl.wrQLenPdf::57                       0                       # What write queue length does an incoming req see
system.mem_ctrl.wrQLenPdf::58                       0                       # What write queue length does an incoming req see
system.mem_ctrl.wrQLenPdf::59                       0                       # What write queue length does an incoming req see
system.mem_ctrl.wrQLenPdf::60                       0                       # What write queue length does an incoming req see
system.mem_ctrl.wrQLenPdf::61                       0                       # What write queue length does an incoming req see
system.mem_ctrl.wrQLenPdf::62                       0                       # What write queue length does an incoming req see
system.mem_ctrl.wrQLenPdf::63                       0                       # What write queue length does an incoming req see
system.mem_ctrl.bytesPerActivate::samples          351                       # Bytes accessed per row activation
system.mem_ctrl.bytesPerActivate::mean     245.242165                       # Bytes accessed per row activation
system.mem_ctrl.bytesPerActivate::gmean    159.138803                       # Bytes accessed per row activation
system.mem_ctrl.bytesPerActivate::stdev    261.765535                       # Bytes accessed per row activation
system.mem_ctrl.bytesPerActivate::0-127           129     36.75%     36.75% # Bytes accessed per row activation
system.mem_ctrl.bytesPerActivate::128-255          106     30.20%     66.95% # Bytes accessed per row activation
system.mem_ctrl.bytesPerActivate::256-383           47     13.39%     80.34% # Bytes accessed per row activation
system.mem_ctrl.bytesPerActivate::384-511           17      4.84%     85.19% # Bytes accessed per row activation
system.mem_ctrl.bytesPerActivate::512-639           13      3.70%     88.89% # Bytes accessed per row activation
system.mem_ctrl.bytesPerActivate::640-767            8      2.28%     91.17% # Bytes accessed per row activation
system.mem_ctrl.bytesPerActivate::768-895            9      2.56%     93.73% # Bytes accessed per row activation
system.mem_ctrl.bytesPerActivate::896-1023            5      1.42%     95.16% # Bytes accessed per row activation
system.mem_ctrl.bytesPerActivate::1024-1151           17      4.84%    100.00% # Bytes accessed per row activation
system.mem_ctrl.bytesPerActivate::total           351                       # Bytes accessed per row activation
system.mem_ctrl.bytesReadDRAM                   86912                       # Total number of bytes read from DRAM
system.mem_ctrl.bytesReadWrQ                      256                       # Total number of bytes read from write queue
system.mem_ctrl.bytesWritten                        0                       # Total number of bytes written to DRAM
system.mem_ctrl.bytesReadSys                    87168                       # Total read bytes from the system interface side
system.mem_ctrl.bytesWrittenSys                  1344                       # Total written bytes from the system interface side
system.mem_ctrl.avgRdBW                        409.83                       # Average DRAM read bandwidth in MiByte/s
system.mem_ctrl.avgWrBW                          0.00                       # Average achieved write bandwidth in MiByte/s
system.mem_ctrl.avgRdBWSys                     411.04                       # Average system read bandwidth in MiByte/s
system.mem_ctrl.avgWrBWSys                       6.34                       # Average system write bandwidth in MiByte/s
system.mem_ctrl.peakBW                       12800.00                       # Theoretical peak bandwidth in MiByte/s
system.mem_ctrl.busUtil                          3.20                       # Data bus utilization in percentage
system.mem_ctrl.busUtilRead                      3.20                       # Data bus utilization in percentage for reads
system.mem_ctrl.busUtilWrite                     0.00                       # Data bus utilization in percentage for writes
system.mem_ctrl.totGap                      211963000                       # Total gap between requests
system.mem_ctrl.avgGap                      153263.20                       # Average gap between requests
system.mem_ctrl.masterReadBytes::.cpu.inst        55552                       # Per-master bytes read from memory
system.mem_ctrl.masterReadBytes::.cpu.data        31360                       # Per-master bytes read from memory
system.mem_ctrl.masterReadRate::.cpu.inst 261956183.452321439981                       # Per-master bytes read from memory rate (Bytes/sec)
system.mem_ctrl.masterReadRate::.cpu.data 147878490.658568561077                       # Per-master bytes read from memory rate (Bytes/sec)
system.mem_ctrl.masterReadAccesses::.cpu.inst          868                       # Per-master read serviced memory accesses
system.mem_ctrl.masterReadAccesses::.cpu.data          494                       # Per-master read serviced memory accesses
system.mem_ctrl.masterWriteAccesses::.writebacks           21                       # Per-master write serviced memory accesses
system.mem_ctrl.masterReadTotalLat::.cpu.inst     23395000                       # Per-master read total memory access latency
system.mem_ctrl.masterReadTotalLat::.cpu.data     12664000                       # Per-master read total memory access latency
system.mem_ctrl.masterReadAvgLat::.cpu.inst     26952.76                       # Per-master read average memory access latency
system.mem_ctrl.masterReadAvgLat::.cpu.data     25635.63                       # Per-master read average memory access latency
system.mem_ctrl.masterWriteAvgLat::.writebacks         0.00                       # Per-master write average memory access latency
system.mem_ctrl.pageHitRate                     72.66                       # Row buffer hit rate, read and write combined
system.mem_ctrl.rank1.actEnergy                835380                       # Energy for activate commands per rank (pJ)
system.mem_ctrl.rank1.preEnergy                432630                       # Energy for precharge commands per rank (pJ)
system.mem_ctrl.rank1.readEnergy              3348660                       # Energy for read commands per rank (pJ)
system.mem_ctrl.rank1.writeEnergy                   0                       # Energy for write commands per rank (pJ)
system.mem_ctrl.rank1.refreshEnergy      16595280.000000                       # Energy for refresh commands per rank (pJ)
system.mem_ctrl.rank1.actBackEnergy          76936320                       # Energy for active background per rank (pJ)
system.mem_ctrl.rank1.preBackEnergy          16644960                       # Energy for precharge background per rank (pJ)
system.mem_ctrl.rank1.actPowerDownEnergy            0                       # Energy for active power-down per rank (pJ)
system.mem_ctrl.rank1.prePowerDownEnergy            0                       # Energy for precharge power-down per rank (pJ)
system.mem_ctrl.rank1.selfRefreshEnergy             0                       # Energy for self refresh per rank (pJ)
system.mem_ctrl.rank1.totalEnergy           114793230                       # Total energy per rank (pJ)
system.mem_ctrl.rank1.averagePower         541.308979                       # Core power per rank (mW)
system.mem_ctrl.rank1.totalIdleTime                 0                       # Total Idle time Per DRAM Rank
system.mem_ctrl.rank1.memoryStateTime::IDLE     42556000                       # Time in different power states
system.mem_ctrl.rank1.memoryStateTime::REF      7020000                       # Time in different power states
system.mem_ctrl.rank1.memoryStateTime::SREF            0                       # Time in different power states
system.mem_ctrl.rank1.memoryStateTime::PRE_PDN            0                       # Time in different power states
system.mem_ctrl.rank1.memoryStateTime::ACT    162490000                       # Time in different power states
system.mem_ctrl.rank1.memoryStateTime::ACT_PDN            0                       # Time in different power states
system.mem_ctrl.rank0.actEnergy               1706460                       # Energy for activate commands per rank (pJ)
system.mem_ctrl.rank0.preEnergy                899415                       # Energy for precharge commands per rank (pJ)
system.mem_ctrl.rank0.readEnergy              6347460                       # Energy for read commands per rank (pJ)
system.mem_ctrl.rank0.writeEnergy                   0                       # Energy for write commands per rank (pJ)
system.mem_ctrl.rank0.refreshEnergy      16595280.000000                       # Energy for refresh commands per rank (pJ)
system.mem_ctrl.rank0.actBackEnergy          91239900                       # Energy for active background per rank (pJ)
system.mem_ctrl.rank0.preBackEnergy           4599840                       # Energy for precharge background per rank (pJ)
system.mem_ctrl.rank0.actPowerDownEnergy            0                       # Energy for active power-down per rank (pJ)
system.mem_ctrl.rank0.prePowerDownEnergy            0                       # Energy for precharge power-down per rank (pJ)
system.mem_ctrl.rank0.selfRefreshEnergy             0                       # Energy for self refresh per rank (pJ)
system.mem_ctrl.rank0.totalEnergy           121388355                       # Total energy per rank (pJ)
system.mem_ctrl.rank0.averagePower         572.408378                       # Core power per rank (mW)
system.mem_ctrl.rank0.totalIdleTime                 0                       # Total Idle time Per DRAM Rank
system.mem_ctrl.rank0.memoryStateTime::IDLE     11136750                       # Time in different power states
system.mem_ctrl.rank0.memoryStateTime::REF      7020000                       # Time in different power states
system.mem_ctrl.rank0.memoryStateTime::SREF            0                       # Time in different power states
system.mem_ctrl.rank0.memoryStateTime::PRE_PDN            0                       # Time in different power states
system.mem_ctrl.rank0.memoryStateTime::ACT    193909250                       # Time in different power states
system.mem_ctrl.rank0.memoryStateTime::ACT_PDN            0                       # Time in different power states
system.mem_ctrl.power_state.pwrStateResidencyTicks::UNDEFINED    212066000                       # Cumulative time (in ticks) in various power states
system.cache_medium.blocked_cycles::no_mshrs            0                       # number of cycles access was blocked
system.cache_medium.blocked_cycles::no_targets            0                       # number of cycles access was blocked
system.cache_medium.blocked::no_mshrs               0                       # number of cycles access was blocked
system.cache_medium.blocked::no_targets             0                       # number of cycles access was blocked
system.cache_medium.avg_blocked_cycles::no_mshrs          nan                       # average number of cycles each access was blocked
system.cache_medium.avg_blocked_cycles::no_targets          nan                       # average number of cycles each access was blocked
system.cache_medium.replacements                    0                       # number of replacements
system.cache_medium.power_state.pwrStateResidencyTicks::UNDEFINED    212066000                       # Cumulative time (in ticks) in various power states
system.cache_medium.tags.tagsinuse                  0                       # Cycle average of tags in use
system.cache_medium.tags.total_refs                 0                       # Total number of references to valid blocks.
system.cache_medium.tags.sampled_refs               0                       # Sample count of references to valid blocks.
system.cache_medium.tags.avg_refs                 nan                       # Average number of references to valid blocks.
system.cache_medium.tags.warmup_cycle               0                       # Cycle when the warmup percentage was hit.
system.cache_medium.tags.tag_accesses               0                       # Number of tag accesses
system.cache_medium.tags.data_accesses              0                       # Number of data accesses
system.cache_medium.tags.power_state.pwrStateResidencyTicks::UNDEFINED    212066000                       # Cumulative time (in ticks) in various power states
system.clk_domain.clock                          1000                       # Clock period in ticks
system.clk_domain.voltage_domain.voltage            1                       # Voltage in Volts
system.dcache.demand_hits::.cpu.data            12102                       # number of demand (read+write) hits
system.dcache.demand_hits::total                12102                       # number of demand (read+write) hits
system.dcache.overall_hits::.cpu.data           12102                       # number of overall hits
system.dcache.overall_hits::total               12102                       # number of overall hits
system.dcache.demand_misses::.cpu.data            650                       # number of demand (read+write) misses
system.dcache.demand_misses::total                650                       # number of demand (read+write) misses
system.dcache.overall_misses::.cpu.data           650                       # number of overall misses
system.dcache.overall_misses::total               650                       # number of overall misses
system.dcache.demand_miss_latency::.cpu.data     40011000                       # number of demand (read+write) miss cycles
system.dcache.demand_miss_latency::total     40011000                       # number of demand (read+write) miss cycles
system.dcache.overall_miss_latency::.cpu.data     40011000                       # number of overall miss cycles
system.dcache.overall_miss_latency::total     40011000                       # number of overall miss cycles
system.dcache.demand_accesses::.cpu.data        12752                       # number of demand (read+write) accesses
system.dcache.demand_accesses::total            12752                       # number of demand (read+write) accesses
system.dcache.overall_accesses::.cpu.data        12752                       # number of overall (read+write) accesses
system.dcache.overall_accesses::total           12752                       # number of overall (read+write) accesses
system.dcache.demand_miss_rate::.cpu.data     0.050972                       # miss rate for demand accesses
system.dcache.demand_miss_rate::total        0.050972                       # miss rate for demand accesses
system.dcache.overall_miss_rate::.cpu.data     0.050972                       # miss rate for overall accesses
system.dcache.overall_miss_rate::total       0.050972                       # miss rate for overall accesses
system.dcache.demand_avg_miss_latency::.cpu.data 61555.384615                       # average overall miss latency
system.dcache.demand_avg_miss_latency::total 61555.384615                       # average overall miss latency
system.dcache.overall_avg_miss_latency::.cpu.data 61555.384615                       # average overall miss latency
system.dcache.overall_avg_miss_latency::total 61555.384615                       # average overall miss latency
system.dcache.blocked_cycles::no_mshrs              0                       # number of cycles access was blocked
system.dcache.blocked_cycles::no_targets            0                       # number of cycles access was blocked
system.dcache.blocked::no_mshrs                     0                       # number of cycles access was blocked
system.dcache.blocked::no_targets                   0                       # number of cycles access was blocked
system.dcache.avg_blocked_cycles::no_mshrs          nan                       # average number of cycles each access was blocked
system.dcache.avg_blocked_cycles::no_targets          nan                       # average number of cycles each access was blocked
system.dcache.writebacks::.writebacks             265                       # number of writebacks
system.dcache.writebacks::total                   265                       # number of writebacks
system.dcache.demand_mshr_misses::.cpu.data          650                       # number of demand (read+write) MSHR misses
system.dcache.demand_mshr_misses::total           650                       # number of demand (read+write) MSHR misses
system.dcache.overall_mshr_misses::.cpu.data          650                       # number of overall MSHR misses
system.dcache.overall_mshr_misses::total          650                       # number of overall MSHR misses
system.dcache.demand_mshr_miss_latency::.cpu.data     38711000                       # number of demand (read+write) MSHR miss cycles
system.dcache.demand_mshr_miss_latency::total     38711000                       # number of demand (read+write) MSHR miss cycles
system.dcache.overall_mshr_miss_latency::.cpu.data     38711000                       # number of overall MSHR miss cycles
system.dcache.overall_mshr_miss_latency::total     38711000                       # number of overall MSHR miss cycles
system.dcache.demand_mshr_miss_rate::.cpu.data     0.050972                       # mshr miss rate for demand accesses
system.dcache.demand_mshr_miss_rate::total     0.050972                       # mshr miss rate for demand accesses
system.dcache.overall_mshr_miss_rate::.cpu.data     0.050972                       # mshr miss rate for overall accesses
system.dcache.overall_mshr_miss_rate::total     0.050972                       # mshr miss rate for overall accesses
system.dcache.demand_avg_mshr_miss_latency::.cpu.data 59555.384615                       # average overall mshr miss latency
system.dcache.demand_avg_mshr_miss_latency::total 59555.384615                       # average overall mshr miss latency
system.dcache.overall_avg_mshr_miss_latency::.cpu.data 59555.384615                       # average overall mshr miss latency
system.dcache.overall_avg_mshr_miss_latency::total 59555.384615                       # average overall mshr miss latency
system.dcache.replacements                        399                       # number of replacements
system.dcache.ReadReq_hits::.cpu.data            5784                       # number of ReadReq hits
system.dcache.ReadReq_hits::total                5784                       # number of ReadReq hits
system.dcache.ReadReq_misses::.cpu.data           278                       # number of ReadReq misses
system.dcache.ReadReq_misses::total               278                       # number of ReadReq misses
system.dcache.ReadReq_miss_latency::.cpu.data     14038000                       # number of ReadReq miss cycles
system.dcache.ReadReq_miss_latency::total     14038000                       # number of ReadReq miss cycles
system.dcache.ReadReq_accesses::.cpu.data         6062                       # number of ReadReq accesses(hits+misses)
system.dcache.ReadReq_accesses::total            6062                       # number of ReadReq accesses(hits+misses)
system.dcache.ReadReq_miss_rate::.cpu.data     0.045859                       # miss rate for ReadReq accesses
system.dcache.ReadReq_miss_rate::total       0.045859                       # miss rate for ReadReq accesses
system.dcache.ReadReq_avg_miss_latency::.cpu.data 50496.402878                       # average ReadReq miss latency
[...]
system.dcache.tags.age_task_id_blocks_1024::0           22                       # Occupied blocks per task id
system.dcache.tags.age_task_id_blocks_1024::1           83                       # Occupied blocks per task id
system.dcache.tags.age_task_id_blocks_1024::2          146                       # Occupied blocks per task id
system.dcache.tags.occ_task_id_percent::1024     0.980469                       # Percentage of cache occupancy per task id
system.dcache.tags.tag_accesses                 13402                       # Number of tag accesses
system.dcache.tags.data_accesses                13402                       # Number of data accesses
system.dcache.tags.power_state.pwrStateResidencyTicks::UNDEFINED    212066000                       # Cumulative time (in ticks) in various power states
system.cache_large.blocked_cycles::no_mshrs            0                       # number of cycles access was blocked
system.cache_large.blocked_cycles::no_targets            0                       # number of cycles access was blocked
system.cache_large.blocked::no_mshrs                0                       # number of cycles access was blocked
system.cache_large.blocked::no_targets              0                       # number of cycles access was blocked
system.cache_large.avg_blocked_cycles::no_mshrs          nan                       # average number of cycles each access was blocked
system.cache_large.avg_blocked_cycles::no_targets          nan                       # average number of cycles each access was blocked
system.cache_large.replacements                     0                       # number of replacements
system.cache_large.power_state.pwrStateResidencyTicks::UNDEFINED    212066000                       # Cumulative time (in ticks) in various power states
system.cache_large.tags.tagsinuse                   0                       # Cycle average of tags in use
system.cache_large.tags.total_refs                  0                       # Total number of references to valid blocks.
system.cache_large.tags.sampled_refs                0                       # Sample count of references to valid blocks.
system.cache_large.tags.avg_refs                  nan                       # Average number of references to valid blocks.
system.cache_large.tags.warmup_cycle                0                       # Cycle when the warmup percentage was hit.
system.cache_large.tags.tag_accesses                0                       # Number of tag accesses
system.cache_large.tags.data_accesses               0                       # Number of data accesses
system.cache_large.tags.power_state.pwrStateResidencyTicks::UNDEFINED    212066000                       # Cumulative time (in ticks) in various power states
system.l2cache.demand_hits::.cpu.inst              92                       # number of demand (read+write) hits
system.l2cache.demand_hits::.cpu.data             113                       # number of demand (read+write) hits
system.l2cache.demand_hits::total                 205                       # number of demand (read+write) hits
system.l2cache.overall_hits::.cpu.inst             92                       # number of overall hits
system.l2cache.overall_hits::.cpu.data            113                       # number of overall hits
system.l2cache.overall_hits::total                205                       # number of overall hits
system.l2cache.demand_misses::.cpu.inst           966                       # number of demand (read+write) misses
system.l2cache.demand_misses::.cpu.data           537                       # number of demand (read+write) misses
system.l2cache.demand_misses::total              1503                       # number of demand (read+write) misses
system.l2cache.overall_misses::.cpu.inst          966                       # number of overall misses
system.l2cache.overall_misses::.cpu.data          537                       # number of overall misses
system.l2cache.overall_misses::total             1503                       # number of overall misses
system.l2cache.demand_miss_latency::.cpu.inst     63149000                       # number of demand (read+write) miss cycles
system.l2cache.demand_miss_latency::.cpu.data     35087000                       # number of demand (read+write) miss cycles
system.l2cache.demand_miss_latency::total     98236000                       # number of demand (read+write) miss cycles
system.l2cache.overall_miss_latency::.cpu.inst     63149000                       # number of overall miss cycles
system.l2cache.overall_miss_latency::.cpu.data     35087000                       # number of overall miss cycles
system.l2cache.overall_miss_latency::total     98236000                       # number of overall miss cycles
system.l2cache.demand_accesses::.cpu.inst         1058                       # number of demand (read+write) accesses
system.l2cache.demand_accesses::.cpu.data          650                       # number of demand (read+write) accesses
system.l2cache.demand_accesses::total            1708                       # number of demand (read+write) accesses
system.l2cache.overall_accesses::.cpu.inst         1058                       # number of overall (read+write) accesses
system.l2cache.overall_accesses::.cpu.data          650                       # number of overall (read+write) accesses
system.l2cache.overall_accesses::total           1708                       # number of overall (read+write) accesses
system.l2cache.demand_miss_rate::.cpu.inst     0.913043                       # miss rate for demand accesses
system.l2cache.demand_miss_rate::.cpu.data     0.826154                       # miss rate for demand accesses
system.l2cache.demand_miss_rate::total       0.879977                       # miss rate for demand accesses
system.l2cache.overall_miss_rate::.cpu.inst     0.913043                       # miss rate for overall accesses
system.l2cache.overall_miss_rate::.cpu.data     0.826154                       # miss rate for overall accesses
system.l2cache.overall_miss_rate::total      0.879977                       # miss rate for overall accesses
system.l2cache.demand_avg_miss_latency::.cpu.inst 65371.635611                       # average overall miss latency
system.l2cache.demand_avg_miss_latency::.cpu.data 65338.919926                       # average overall miss latency
system.l2cache.demand_avg_miss_latency::total 65359.946773                       # average overall miss latency
system.l2cache.overall_avg_miss_latency::.cpu.inst 65371.635611                       # average overall miss latency
system.l2cache.overall_avg_miss_latency::.cpu.data 65338.919926                       # average overall miss latency
system.l2cache.overall_avg_miss_latency::total 65359.946773                       # average overall miss latency
system.l2cache.blocked_cycles::no_mshrs             0                       # number of cycles access was blocked
system.l2cache.blocked_cycles::no_targets            0                       # number of cycles access was blocked
system.l2cache.blocked::no_mshrs                    0                       # number of cycles access was blocked
system.l2cache.blocked::no_targets                  0                       # number of cycles access was blocked
system.l2cache.avg_blocked_cycles::no_mshrs          nan                       # average number of cycles each access was blocked
system.l2cache.avg_blocked_cycles::no_targets          nan                       # average number of cycles each access was blocked
system.l2cache.writebacks::.writebacks            151                       # number of writebacks
system.l2cache.writebacks::total                  151                       # number of writebacks
system.l2cache.demand_mshr_misses::.cpu.inst          966                       # number of demand (read+write) MSHR misses
system.l2cache.demand_mshr_misses::.cpu.data          537                       # number of demand (read+write) MSHR misses
system.l2cache.demand_mshr_misses::total         1503                       # number of demand (read+write) MSHR misses
system.l2cache.overall_mshr_misses::.cpu.inst          966                       # number of overall MSHR misses
system.l2cache.overall_mshr_misses::.cpu.data          537                       # number of overall MSHR misses
system.l2cache.overall_mshr_misses::total         1503                       # number of overall MSHR misses
system.l2cache.demand_mshr_miss_latency::.cpu.inst     61217000                       # number of demand (read+write) MSHR miss cycles
system.l2cache.demand_mshr_miss_latency::.cpu.data     34013000                       # number of demand (read+write) MSHR miss cycles
system.l2cache.demand_mshr_miss_latency::total     95230000                       # number of demand (read+write) MSHR miss cycles
system.l2cache.overall_mshr_miss_latency::.cpu.inst     61217000                       # number of overall MSHR miss cycles
system.l2cache.overall_mshr_miss_latency::.cpu.data     34013000                       # number of overall MSHR miss cycles
system.l2cache.overall_mshr_miss_latency::total     95230000                       # number of overall MSHR miss cycles
system.l2cache.demand_mshr_miss_rate::.cpu.inst     0.913043                       # mshr miss rate for demand accesses
system.l2cache.demand_mshr_miss_rate::.cpu.data     0.826154                       # mshr miss rate for demand accesses
system.l2cache.demand_mshr_miss_rate::total     0.879977                       # mshr miss rate for demand accesses
system.l2cache.overall_mshr_miss_rate::.cpu.inst     0.913043                       # mshr miss rate for overall accesses
system.l2cache.overall_mshr_miss_rate::.cpu.data     0.826154                       # mshr miss rate for overall accesses
system.l2cache.overall_mshr_miss_rate::total     0.879977                       # mshr miss rate for overall accesses
system.l2cache.demand_avg_mshr_miss_latency::.cpu.inst 63371.635611                       # average overall mshr miss latency
system.l2cache.demand_avg_mshr_miss_latency::.cpu.data 63338.919926                       # average overall mshr miss latency
system.l2cache.demand_avg_mshr_miss_latency::total 63359.946773                       # average overall mshr miss latency
system.l2cache.overall_avg_mshr_miss_latency::.cpu.inst 63371.635611                       # average overall mshr miss latency
system.l2cache.overall_avg_mshr_miss_latency::.cpu.data 63338.919926                       # average overall mshr miss latency
system.l2cache.overall_avg_mshr_miss_latency::total 63359.946773                       # average overall mshr miss latency
system.l2cache.replacements                      1176                       # number of replacements
system.l2cache.ReadReq_hits::.cpu.inst             92                       # number of ReadReq hits
system.l2cache.ReadReq_hits::.cpu.data            113                       # number of ReadReq hits
system.l2cache.ReadReq_hits::total                205                       # number of ReadReq hits
system.l2cache.ReadReq_misses::.cpu.inst          966                       # number of ReadReq misses
system.l2cache.ReadReq_misses::.cpu.data          537                       # number of ReadReq misses
system.l2cache.ReadReq_misses::total             1503                       # number of ReadReq misses
system.l2cache.ReadReq_miss_latency::.cpu.inst     63149000                       # number of ReadReq miss cycles
system.l2cache.ReadReq_miss_latency::.cpu.data     35087000                       # number of ReadReq miss cycles
system.l2cache.ReadReq_miss_latency::total     98236000                       # number of ReadReq miss cycles
system.l2cache.ReadReq_accesses::.cpu.inst         1058                       # number of ReadReq accesses(hits+misses)
system.l2cache.ReadReq_accesses::.cpu.data          650                       # number of ReadReq accesses(hits+misses)
system.l2cache.ReadReq_accesses::total           1708                       # number of ReadReq accesses(hits+misses)
system.l2cache.ReadReq_miss_rate::.cpu.inst     0.913043                       # miss rate for ReadReq accesses
system.l2cache.ReadReq_miss_rate::.cpu.data     0.826154                       # miss rate for ReadReq accesses
system.l2cache.ReadReq_miss_rate::total      0.879977                       # miss rate for ReadReq accesses
system.l2cache.ReadReq_avg_miss_latency::.cpu.inst 65371.635611                       # average ReadReq miss latency
system.l2cache.ReadReq_avg_miss_latency::.cpu.data 65338.919926                       # average ReadReq miss latency
system.l2cache.ReadReq_avg_miss_latency::total 65359.946773                       # average ReadReq miss latency
system.l2cache.ReadReq_mshr_misses::.cpu.inst          966                       # number of ReadReq MSHR misses
system.l2cache.ReadReq_mshr_misses::.cpu.data          537                       # number of ReadReq MSHR misses
system.l2cache.ReadReq_mshr_misses::total         1503                       # number of ReadReq MSHR misses
system.l2cache.ReadReq_mshr_miss_latency::.cpu.inst     61217000                       # number of ReadReq MSHR miss cycles
system.l2cache.ReadReq_mshr_miss_latency::.cpu.data     34013000                       # number of ReadReq MSHR miss cycles
system.l2cache.ReadReq_mshr_miss_latency::total     95230000                       # number of ReadReq MSHR miss cycles
system.l2cache.ReadReq_mshr_miss_rate::.cpu.inst     0.913043                       # mshr miss rate for ReadReq accesses
system.l2cache.ReadReq_mshr_miss_rate::.cpu.data     0.826154                       # mshr miss rate for ReadReq accesses
system.l2cache.ReadReq_mshr_miss_rate::total     0.879977                       # mshr miss rate for ReadReq accesses
system.l2cache.ReadReq_avg_mshr_miss_latency::.cpu.inst 63371.635611                       # average ReadReq mshr miss latency
system.l2cache.ReadReq_avg_mshr_miss_latency::.cpu.data 63338.919926                       # average ReadReq mshr miss latency
system.l2cache.ReadReq_avg_mshr_miss_latency::total 63359.946773                       # average ReadReq mshr miss latency
system.l2cache.WritebackDirty_hits::.writebacks          265                       # number of WritebackDirty hits
system.l2cache.WritebackDirty_hits::total          265                       # number of WritebackDirty hits
system.l2cache.WritebackDirty_accesses::.writebacks          265                       # number of WritebackDirty accesses(hits+misses)
system.l2cache.WritebackDirty_accesses::total          265                       # number of WritebackDirty accesses(hits+misses)
system.l2cache.power_state.pwrStateResidencyTicks::UNDEFINED    212066000                       # Cumulative time (in ticks) in various power states
system.l2cache.tags.tagsinuse              380.210704                       # Cycle average of tags in use
system.l2cache.tags.total_refs                   1973                       # Total number of references to valid blocks.
system.l2cache.tags.sampled_refs                 1672                       # Sample count of references to valid blocks.
system.l2cache.tags.avg_refs                 1.180024                       # Average number of references to valid blocks.
system.l2cache.tags.warmup_cycle                78000                       # Cycle when the warmup percentage was hit.
system.l2cache.tags.occ_blocks::.writebacks    42.580131                       # Average occupied blocks per requestor
system.l2cache.tags.occ_blocks::.cpu.inst   210.117426                       # Average occupied blocks per requestor
system.l2cache.tags.occ_blocks::.cpu.data   127.513147                       # Average occupied blocks per requestor
system.l2cache.tags.occ_percent::.writebacks     0.083164                       # Average percentage of cache occupancy
system.l2cache.tags.occ_percent::.cpu.inst     0.410386                       # Average percentage of cache occupancy
system.l2cache.tags.occ_percent::.cpu.data     0.249049                       # Average percentage of cache occupancy
system.l2cache.tags.occ_percent::total       0.742599                       # Average percentage of cache occupancy
system.l2cache.tags.occ_task_id_blocks::1024          496                       # Occupied blocks per task id
system.l2cache.tags.age_task_id_blocks_1024::0           44                       # Occupied blocks per task id
system.l2cache.tags.age_task_id_blocks_1024::1          338                       # Occupied blocks per task id
system.l2cache.tags.age_task_id_blocks_1024::2          114                       # Occupied blocks per task id
system.l2cache.tags.occ_task_id_percent::1024     0.968750                       # Percentage of cache occupancy per task id
system.l2cache.tags.tag_accesses                 3645                       # Number of tag accesses
system.l2cache.tags.data_accesses                3645                       # Number of data accesses
system.l2cache.tags.power_state.pwrStateResidencyTicks::UNDEFINED    212066000                       # Cumulative time (in ticks) in various power states
system.l2bar.trans_dist::ReadReq                 1708                       # Transaction distribution
system.l2bar.trans_dist::ReadResp                1708                       # Transaction distribution
system.l2bar.trans_dist::WritebackDirty           265                       # Transaction distribution
system.l2bar.pkt_count_system.dcache.mem_side::system.l2cache.cpu_side         1565                       # Packet count per connected master and slave (bytes)
system.l2bar.pkt_count_system.icache.mem_side::system.l2cache.cpu_side         2116                       # Packet count per connected master and slave (bytes)
system.l2bar.pkt_count::total                    3681                       # Packet count per connected master and slave (bytes)
system.l2bar.pkt_size_system.dcache.mem_side::system.l2cache.cpu_side        58560                       # Cumulative packet size per connected master and slave (bytes)
system.l2bar.pkt_size_system.icache.mem_side::system.l2cache.cpu_side        67712                       # Cumulative packet size per connected master and slave (bytes)
system.l2bar.pkt_size::total                   126272                       # Cumulative packet size per connected master and slave (bytes)
system.l2bar.respLayer1.occupancy             5290000                       # Layer occupancy (ticks)
system.l2bar.respLayer1.utilization               2.5                       # Layer utilization (%)
system.l2bar.reqLayer0.occupancy              3033000                       # Layer occupancy (ticks)
system.l2bar.reqLayer0.utilization                1.4                       # Layer utilization (%)
system.l2bar.respLayer0.occupancy             3250000                       # Layer occupancy (ticks)
system.l2bar.respLayer0.utilization               1.5                       # Layer utilization (%)
system.l2bar.power_state.pwrStateResidencyTicks::UNDEFINED    212066000                       # Cumulative time (in ticks) in various power states
system.cpu.dtb.walker.power_state.pwrStateResidencyTicks::UNDEFINED    212066000                       # Cumulative time (in ticks) in various power states
system.cpu.interrupts.clk_domain.clock          16000                       # Clock period in ticks
system.cpu.itb.walker.power_state.pwrStateResidencyTicks::UNDEFINED    212066000                       # Cumulative time (in ticks) in various power states
system.cpu.power_state.numTransitions               1                       # Number of power state transitions
system.cpu.power_state.pwrStateResidencyTicks::ON    212066000                       # Cumulative time (in ticks) in various power states

---------- End Simulation Statistics   ----------
