
---------- Begin Simulation Statistics ----------
final_tick                               3158595080000                       # Number of ticks from beginning of simulation (restored from checkpoints and never reset)
host_inst_rate                                 218049                       # Simulator instruction rate (inst/s)
host_mem_usage                                 768840                       # Number of bytes of host memory used
host_op_rate                                   410079                       # Simulator op (including micro ops) rate (op/s)
host_seconds                                   184.95                       # Real time elapsed on the host
host_tick_rate                            17078239839                       # Simulator tick rate (ticks/s)
sim_freq                                 1000000000000                       # Frequency of simulated ticks
sim_insts                                    40327763                       # Number of instructions simulated
sim_ops                                      75843551                       # Number of ops (including micro ops) simulated
sim_seconds                                  3.158595                       # Number of seconds simulated
sim_ticks                                3158595080000                       # Number of ticks simulated
system.cachebus.snoop_filter.hit_multi_requests            0                       # Number of requests hitting in the snoop filter with multiple (>1) holders of the requested data.
system.cachebus.snoop_filter.hit_multi_snoops            0                       # Number of snoops hitting in the snoop filter with multiple (>1) holders of the requested data.
system.cachebus.snoop_filter.hit_single_requests            0                       # Number of requests hitting in the snoop filter with a single holder of the requested data.
system.cachebus.snoop_filter.hit_single_snoops            0                       # Number of snoops hitting in the snoop filter with a single holder of the requested data.
system.cachebus.snoop_filter.tot_requests            0                       # Total number of requests made to the snoop filter.
system.cachebus.snoop_filter.tot_snoops             0                       # Total number of snoops made to the snoop filter.
system.cpu.Branches                           9125453                       # Number of branches fetched
system.cpu.committedInsts                    40327763                       # Number of instructions committed
system.cpu.committedOps                      75843551                       # Number of ops (including micro ops) committed
system.cpu.dtb.rdAccesses                     7822405                       # TLB accesses on read requests
system.cpu.dtb.rdMisses                          2024                       # TLB misses on read requests
system.cpu.dtb.wrAccesses                     4326213                       # TLB accesses on write requests
system.cpu.dtb.wrMisses                           205                       # TLB misses on write requests
system.cpu.idle_fraction                     0.000000                       # Percentage of idle cycles
system.cpu.itb.rdAccesses                           0                       # TLB accesses on read requests
system.cpu.itb.rdMisses                             0                       # TLB misses on read requests
system.cpu.itb.wrAccesses                    51381505                       # TLB accesses on write requests
system.cpu.itb.wrMisses                           290                       # TLB misses on write requests
system.cpu.not_idle_fraction                 1.000000                       # Percentage of non-idle cycles
system.cpu.numCycles                       3158595080                       # number of cpu cycles simulated
system.cpu.numWorkItemsCompleted                    0                       # number of work items this cpu completed
system.cpu.numWorkItemsStarted                      0                       # number of work items this cpu started
system.cpu.num_busy_cycles               3158595079.999000                       # Number of busy cycles
system.cpu.num_cc_register_reads             40662155                       # number of times the CC registers were read
system.cpu.num_cc_register_writes            22243873                       # number of times the CC registers were written
system.cpu.num_conditional_control_insts      5152482                       # number of instructions that are conditional controls
system.cpu.num_fp_alu_accesses                 184715                       # Number of float alu accesses
system.cpu.num_fp_insts                        184715                       # number of float instructions
system.cpu.num_fp_register_reads               311776                       # number of times the floating registers were read
system.cpu.num_fp_register_writes              158547                       # number of times the floating registers were written
system.cpu.num_func_calls                     2534818                       # number of times a function call or return occured
system.cpu.num_idle_cycles                   0.001000                       # Number of idle cycles
system.cpu.num_int_alu_accesses              75679650                       # Number of integer alu accesses
system.cpu.num_int_insts                     75679650                       # number of integer instructions
system.cpu.num_int_register_reads           152468077                       # number of times the integer registers were read
system.cpu.num_int_register_writes           62212284                       # number of times the integer registers were written
system.cpu.num_load_insts                     7821351                       # Number of load instructions
system.cpu.num_mem_refs                      12147380                       # number of memory refs
system.cpu.num_store_insts                    4326029                       # Number of store instructions
system.cpu.num_vec_alu_accesses                     0                       # Number of vector alu accesses
system.cpu.num_vec_insts                            0                       # number of vector instructions
system.cpu.num_vec_register_reads                   0                       # number of times the vector registers were read
system.cpu.num_vec_register_writes                  0                       # number of times the vector registers were written
system.cpu.op_class::No_OpClass                 33348      0.04%      0.04% # Class of executed instruction
system.cpu.op_class::IntAlu                  63518529     83.75%     83.79% # Class of executed instruction
system.cpu.op_class::IntMult                      188      0.00%     83.79% # Class of executed instruction
system.cpu.op_class::IntDiv                        49      0.00%     83.79% # Class of executed instruction
system.cpu.op_class::FloatAdd                    3987      0.01%     83.80% # Class of executed instruction
system.cpu.op_class::FloatCmp                       0      0.00%     83.80% # Class of executed instruction
system.cpu.op_class::FloatCvt                       0      0.00%     83.80% # Class of executed instruction
system.cpu.op_class::FloatMult                      0      0.00%     83.80% # Class of executed instruction
system.cpu.op_class::FloatMultAcc                   0      0.00%     83.80% # Class of executed instruction
system.cpu.op_class::FloatDiv                       0      0.00%     83.80% # Class of executed instruction
system.cpu.op_class::FloatMisc                      0      0.00%     83.80% # Class of executed instruction
system.cpu.op_class::FloatSqrt                      0      0.00%     83.80% # Class of executed instruction
system.cpu.op_class::SimdAdd                       26      0.00%     83.80% # Class of executed instruction
system.cpu.op_class::SimdAddAcc                     0      0.00%     83.80% # Class of executed instruction
system.cpu.op_class::SimdAlu                    54280      0.07%     83.87% # Class of executed instruction
system.cpu.op_class::SimdCmp                     1606      0.00%     83.87% # Class of executed instruction
system.cpu.op_class::SimdCvt                    32134      0.04%     83.91% # Class of executed instruction
system.cpu.op_class::SimdMisc                   52084      0.07%     83.98% # Class of executed instruction
system.cpu.op_class::SimdMult                       0      0.00%     83.98% # Class of executed instruction
system.cpu.op_class::SimdMultAcc                    0      0.00%     83.98% # Class of executed instruction
system.cpu.op_class::SimdShift                      0      0.00%     83.98% # Class of executed instruction
system.cpu.op_class::SimdShiftAcc                   0      0.00%     83.98% # Class of executed instruction
system.cpu.op_class::SimdDiv                        0      0.00%     83.98% # Class of executed instruction
system.cpu.op_class::SimdSqrt                       0      0.00%     83.98% # Class of executed instruction
system.cpu.op_class::SimdFloatAdd                   0      0.00%     83.98% # Class of executed instruction
system.cpu.op_class::SimdFloatAlu                   0      0.00%     83.98% # Class of executed instruction
system.cpu.op_class::SimdFloatCmp                   0      0.00%     83.98% # Class of executed instruction
system.cpu.op_class::SimdFloatCvt                   0      0.00%     83.98% # Class of executed instruction
system.cpu.op_class::SimdFloatDiv                  25      0.00%     83.98% # Class of executed instruction
system.cpu.op_class::SimdFloatMisc                  0      0.00%     83.98% # Class of executed instruction
system.cpu.op_class::SimdFloatMult                  0      0.00%     83.98% # Class of executed instruction
system.cpu.op_class::SimdFloatMultAcc               0      0.00%     83.98% # Class of executed instruction
system.cpu.op_class::SimdFloatSqrt                  0      0.00%     83.98% # Class of executed instruction
system.cpu.op_class::SimdReduceAdd                  0      0.00%     83.98% # Class of executed instruction
system.cpu.op_class::SimdReduceAlu                  0      0.00%     83.98% # Class of executed instruction
system.cpu.op_class::SimdReduceCmp                  0      0.00%     83.98% # Class of executed instruction
system.cpu.op_class::SimdFloatReduceAdd             0      0.00%     83.98% # Class of executed instruction
system.cpu.op_class::SimdFloatReduceCmp             0      0.00%     83.98% # Class of executed instruction
system.cpu.op_class::SimdAes                        0      0.00%     83.98% # Class of executed instruction
system.cpu.op_class::SimdAesMix                     0      0.00%     83.98% # Class of executed instruction
system.cpu.op_class::SimdSha1Hash                   0      0.00%     83.98% # Class of executed instruction
system.cpu.op_class::SimdSha1Hash2                  0      0.00%     83.98% # Class of executed instruction
system.cpu.op_class::SimdSha256Hash                 0      0.00%     83.98% # Class of executed instruction
system.cpu.op_class::SimdSha256Hash2                0      0.00%     83.98% # Class of executed instruction
system.cpu.op_class::SimdShaSigma2                  0      0.00%     83.98% # Class of executed instruction
system.cpu.op_class::SimdShaSigma3                  0      0.00%     83.98% # Class of executed instruction
system.cpu.op_class::SimdPredAlu                    0      0.00%     83.98% # Class of executed instruction
system.cpu.op_class::MemRead                  7794693     10.28%     94.26% # Class of executed instruction
system.cpu.op_class::MemWrite                 4324036      5.70%     99.96% # Class of executed instruction
system.cpu.op_class::FloatMemRead               26658      0.04%    100.00% # Class of executed instruction
system.cpu.op_class::FloatMemWrite               1993      0.00%    100.00% # Class of executed instruction
system.cpu.op_class::IprAccess                      0      0.00%    100.00% # Class of executed instruction
system.cpu.op_class::InstPrefetch                   0      0.00%    100.00% # Class of executed instruction
system.cpu.op_class::total                   75843636                       # Class of executed instruction
system.cpu.workload.numSyscalls                    20                       # Number of system calls
system.membus.snoop_filter.hit_multi_requests            0                       # Number of requests hitting in the snoop filter with multiple (>1) holders of the requested data.
system.membus.snoop_filter.hit_multi_snoops            0                       # Number of snoops hitting in the snoop filter with multiple (>1) holders of the requested data.
system.membus.snoop_filter.hit_single_requests            0                       # Number of requests hitting in the snoop filter with a single holder of the requested data.
system.membus.snoop_filter.hit_single_snoops            0                       # Number of snoops hitting in the snoop filter with a single holder of the requested data.
system.membus.snoop_filter.tot_requests             0                       # Total number of requests made to the snoop filter.
system.membus.snoop_filter.tot_snoops               0                       # Total number of snoops made to the snoop filter.
system.membus.trans_dist::ReadReq            59203910                       # Transaction distribution
system.membus.trans_dist::ReadResp           59203910                       # Transaction distribution
system.membus.trans_dist::WriteReq            4326128                       # Transaction distribution
system.membus.trans_dist::WriteResp           4326128                       # Transaction distribution
system.membus.pkt_count_system.cpu.icache_port::system.mem_ctrl.port    102763010                       # Packet count per connected master and slave (bytes)
system.membus.pkt_count_system.cpu.icache_port::total    102763010                       # Packet count per connected master and slave (bytes)
system.membus.pkt_count_system.memobj.mem_side::system.mem_ctrl.port     24297066                       # Packet count per connected master and slave (bytes)
system.membus.pkt_count_system.memobj.mem_side::total     24297066                       # Packet count per connected master and slave (bytes)
system.membus.pkt_count::total              127060076                       # Packet count per connected master and slave (bytes)
system.membus.pkt_size_system.cpu.icache_port::system.mem_ctrl.port    411052040                       # Cumulative packet size per connected master and slave (bytes)
system.membus.pkt_size_system.cpu.icache_port::total    411052040                       # Cumulative packet size per connected master and slave (bytes)
system.membus.pkt_size_system.memobj.mem_side::system.mem_ctrl.port     86603490                       # Cumulative packet size per connected master and slave (bytes)
system.membus.pkt_size_system.memobj.mem_side::total     86603490                       # Cumulative packet size per connected master and slave (bytes)
system.membus.pkt_size::total               497655530                       # Cumulative packet size per connected master and slave (bytes)
system.membus.snoops                                0                       # Total snoops (count)
system.membus.snoopTraffic                          0                       # Total snoop traffic (bytes)
system.membus.snoop_fanout::samples          63530038                       # Request fanout histogram
system.membus.snoop_fanout::mean                    0                       # Request fanout histogram
system.membus.snoop_fanout::stdev                   0                       # Request fanout histogram
system.membus.snoop_fanout::underflows              0      0.00%      0.00% # Request fanout histogram
system.membus.snoop_fanout::0                63530038    100.00%    100.00% # Request fanout histogram
system.membus.snoop_fanout::1                       0      0.00%    100.00% # Request fanout histogram
system.membus.snoop_fanout::overflows               0      0.00%    100.00% # Request fanout histogram
system.membus.snoop_fanout::min_value               0                       # Request fanout histogram
system.membus.snoop_fanout::max_value               0                       # Request fanout histogram
system.membus.snoop_fanout::total            63530038                       # Request fanout histogram
system.membus.reqLayer2.occupancy         67856166000                       # Layer occupancy (ticks)
system.membus.reqLayer2.utilization               2.1                       # Layer utilization (%)
system.membus.respLayer1.occupancy        22406044000                       # Layer occupancy (ticks)
system.membus.respLayer1.utilization              0.7                       # Layer utilization (%)
system.membus.respLayer0.occupancy       116481453750                       # Layer occupancy (ticks)
system.membus.respLayer0.utilization              3.7                       # Layer utilization (%)
system.membus.power_state.pwrStateResidencyTicks::UNDEFINED 3158595080000                       # Cumulative time (in ticks) in various power states
system.mem_ctrl.bytes_read::.cpu.inst       411052040                       # Number of bytes read from this memory
system.mem_ctrl.bytes_read::.cpu.data        52797588                       # Number of bytes read from this memory
system.mem_ctrl.bytes_read::total           463849628                       # Number of bytes read from this memory
system.mem_ctrl.bytes_inst_read::.cpu.inst    411052040                       # Number of instructions bytes read from this memory
system.mem_ctrl.bytes_inst_read::total      411052040                       # Number of instructions bytes read from this memory
system.mem_ctrl.bytes_written::.cpu.data     33805902                       # Number of bytes written to this memory
system.mem_ctrl.bytes_written::total         33805902                       # Number of bytes written to this memory
system.mem_ctrl.num_reads::.cpu.inst         51381505                       # Number of read requests responded to by this memory
system.mem_ctrl.num_reads::.cpu.data          7822405                       # Number of read requests responded to by this memory
system.mem_ctrl.num_reads::total             59203910                       # Number of read requests responded to by this memory
system.mem_ctrl.num_writes::.cpu.data         4326128                       # Number of write requests responded to by this memory
system.mem_ctrl.num_writes::total             4326128                       # Number of write requests responded to by this memory
system.mem_ctrl.bw_read::.cpu.inst          130137618                       # Total read bandwidth from this memory (bytes/s)
system.mem_ctrl.bw_read::.cpu.data           16715529                       # Total read bandwidth from this memory (bytes/s)
system.mem_ctrl.bw_read::total              146853147                       # Total read bandwidth from this memory (bytes/s)
system.mem_ctrl.bw_inst_read::.cpu.inst     130137618                       # Instruction read bandwidth from this memory (bytes/s)
system.mem_ctrl.bw_inst_read::total         130137618                       # Instruction read bandwidth from this memory (bytes/s)
system.mem_ctrl.bw_write::.cpu.data          10702829                       # Write bandwidth from this memory (bytes/s)
system.mem_ctrl.bw_write::total              10702829                       # Write bandwidth from this memory (bytes/s)
system.mem_ctrl.bw_total::.cpu.inst         130137618                       # Total bandwidth to/from this memory (bytes/s)
system.mem_ctrl.bw_total::.cpu.data          27418358                       # Total bandwidth to/from this memory (bytes/s)
system.mem_ctrl.bw_total::total             157555976                       # Total bandwidth to/from this memory (bytes/s)
system.mem_ctrl.avgPriority_.cpu.inst::samples  51381505.00                       # Average QoS priority value for accepted requests
system.mem_ctrl.avgPriority_.cpu.data::samples   7008203.00                       # Average QoS priority value for accepted requests
system.mem_ctrl.priorityMinLatency       0.000000018750                       # per QoS priority minimum request to response latency (s)
system.mem_ctrl.priorityMaxLatency       0.406765726500                       # per QoS priority maximum request to response latency (s)
system.mem_ctrl.numReadWriteTurnArounds          2780                       # Number of turnarounds from READ to WRITE
system.mem_ctrl.numWriteReadTurnArounds          2780                       # Number of turnarounds from WRITE to READ
system.mem_ctrl.numStayReadState            121824910                       # Number of times bus staying in READ state
system.mem_ctrl.numStayWriteState               41746                       # Number of times bus staying in WRITE state
system.mem_ctrl.readReqs                     59203910                       # Number of read requests accepted
system.mem_ctrl.writeReqs                     4326128                       # Number of write requests accepted
system.mem_ctrl.readBursts                   59203910                       # Number of DRAM read bursts, including those serviced by the write queue
system.mem_ctrl.writeBursts                   4326128                       # Number of DRAM write bursts, including those merged in the write queue
system.mem_ctrl.servicedByWrQ                  858727                       # Number of DRAM read bursts serviced by the write queue
system.mem_ctrl.mergedWrBursts                4281603                       # Number of DRAM write bursts merged with an existing one
system.mem_ctrl.neitherReadNorWriteReqs             0                       # Number of requests that are neither read nor write
system.mem_ctrl.perBankRdBursts::0             115874                       # Per bank write bursts
system.mem_ctrl.perBankRdBursts::1            1018851                       # Per bank write bursts
system.mem_ctrl.perBankRdBursts::2            4293722                       # Per bank write bursts
system.mem_ctrl.perBankRdBursts::3             275714                       # Per bank write bursts
system.mem_ctrl.perBankRdBursts::4           46794697                       # Per bank write bursts
system.mem_ctrl.perBankRdBursts::5            2000910                       # Per bank write bursts
system.mem_ctrl.perBankRdBursts::6             103754                       # Per bank write bursts
system.mem_ctrl.perBankRdBursts::7             494359                       # Per bank write bursts
system.mem_ctrl.perBankRdBursts::8             109255                       # Per bank write bursts
system.mem_ctrl.perBankRdBursts::9             409391                       # Per bank write bursts
system.mem_ctrl.perBankRdBursts::10           1028174                       # Per bank write bursts
system.mem_ctrl.perBankRdBursts::11            581838                       # Per bank write bursts
system.mem_ctrl.perBankRdBursts::12            370039                       # Per bank write bursts
system.mem_ctrl.perBankRdBursts::13            233443                       # Per bank write bursts
system.mem_ctrl.perBankRdBursts::14            230014                       # Per bank write bursts
system.mem_ctrl.perBankRdBursts::15            285148                       # Per bank write bursts
system.mem_ctrl.perBankWrBursts::0               1261                       # Per bank write bursts
system.mem_ctrl.perBankWrBursts::1               1308                       # Per bank write bursts
system.mem_ctrl.perBankWrBursts::2               9466                       # Per bank write bursts
system.mem_ctrl.perBankWrBursts::3               3875                       # Per bank write bursts
system.mem_ctrl.perBankWrBursts::4               3149                       # Per bank write bursts
system.mem_ctrl.perBankWrBursts::5               3170                       # Per bank write bursts
system.mem_ctrl.perBankWrBursts::6               2361                       # Per bank write bursts
system.mem_ctrl.perBankWrBursts::7               2175                       # Per bank write bursts
system.mem_ctrl.perBankWrBursts::8               2705                       # Per bank write bursts
system.mem_ctrl.perBankWrBursts::9               4082                       # Per bank write bursts
system.mem_ctrl.perBankWrBursts::10              2170                       # Per bank write bursts
system.mem_ctrl.perBankWrBursts::11              2026                       # Per bank write bursts
system.mem_ctrl.perBankWrBursts::12              2209                       # Per bank write bursts
system.mem_ctrl.perBankWrBursts::13              1426                       # Per bank write bursts
system.mem_ctrl.perBankWrBursts::14              1679                       # Per bank write bursts
system.mem_ctrl.perBankWrBursts::15              1433                       # Per bank write bursts
system.mem_ctrl.avgRdQLen                        1.00                       # Average read queue length when enqueuing
system.mem_ctrl.avgWrQLen                       27.05                       # Average write queue length when enqueuing
system.mem_ctrl.totQLat                  190146807000                       # Total ticks spent queuing
system.mem_ctrl.totBusLat                291725915000                       # Total ticks spent in databus transfers
system.mem_ctrl.totMemAccLat             1284118988250                       # Total ticks spent from burst creation until serviced by the DRAM
system.mem_ctrl.avgQLat                       3259.00                       # Average queueing delay per DRAM burst
system.mem_ctrl.avgBusLat                     5000.00                       # Average bus latency per DRAM burst
system.mem_ctrl.avgMemAccLat                 22009.00                       # Average memory access latency per DRAM burst
system.mem_ctrl.numRdRetry                          0                       # Number of times read queue was full causing retry
system.mem_ctrl.numWrRetry                          0                       # Number of times write queue was full causing retry
system.mem_ctrl.readRowHits                  52471470                       # Number of row buffer hits during reads
system.mem_ctrl.writeRowHits                    39179                       # Number of row buffer hits during writes
system.mem_ctrl.readRowHitRate                  89.93                       # Row buffer hit rate for reads
system.mem_ctrl.writeRowHitRate                 87.99                       # Row buffer hit rate for writes
system.mem_ctrl.readPktSize::0                  57274                       # Read request sizes (log2)
system.mem_ctrl.readPktSize::1                 587740                       # Read request sizes (log2)
system.mem_ctrl.readPktSize::2                1463202                       # Read request sizes (log2)
system.mem_ctrl.readPktSize::3               57095694                       # Read request sizes (log2)
system.mem_ctrl.readPktSize::4                      0                       # Read request sizes (log2)
system.mem_ctrl.readPktSize::5                      0                       # Read request sizes (log2)
system.mem_ctrl.readPktSize::6                      0                       # Read request sizes (log2)
system.mem_ctrl.writePktSize::0                 13723                       # Write request sizes (log2)
system.mem_ctrl.writePktSize::1                  2241                       # Write request sizes (log2)
system.mem_ctrl.writePktSize::2                173318                       # Write request sizes (log2)
system.mem_ctrl.writePktSize::3               4136846                       # Write request sizes (log2)
system.mem_ctrl.writePktSize::4                     0                       # Write request sizes (log2)
system.mem_ctrl.writePktSize::5                     0                       # Write request sizes (log2)
system.mem_ctrl.writePktSize::6                     0                       # Write request sizes (log2)
system.mem_ctrl.rdQLenPdf::0                 58344207                       # What read queue length does an incoming req see
system.mem_ctrl.rdQLenPdf::1                      976                       # What read queue length does an incoming req see
system.mem_ctrl.rdQLenPdf::2                        0                       # What read queue length does an incoming req see
system.mem_ctrl.rdQLenPdf::3                        0                       # What read queue length does an incoming req see
system.mem_ctrl.rdQLenPdf::4                        0                       # What read queue length does an incoming req see
system.mem_ctrl.rdQLenPdf::5                        0                       # What read queue length does an incoming req see
system.mem_ctrl.rdQLenPdf::6                        0                       # What read queue length does an incoming req see
system.mem_ctrl.rdQLenPdf::7                        0                       # What read queue length does an incoming req see
system.mem_ctrl.rdQLenPdf::8                        0                       # What read queue length does an incoming req see
system.mem_ctrl.rdQLenPdf::9                        0                       # What read queue length does an incoming req see
system.mem_ctrl.rdQLenPdf::10                       0                       # What read queue length does an incoming req see
system.mem_ctrl.rdQLenPdf::11                       0                       # What read queue length does an incoming req see
system.mem_ctrl.rdQLenPdf::12                       0                       # What read queue length does an incoming req see
system.mem_ctrl.rdQLenPdf::13                       0                       # What read queue length does an incoming req see
system.mem_ctrl.rdQLenPdf::14                       0                       # What read queue length does an incoming req see
system.mem_ctrl.rdQLenPdf::15                       0                       # What read queue length does an incoming req see
system.mem_ctrl.rdQLenPdf::16                       0                       # What read queue length does an incoming req see
system.mem_ctrl.rdQLenPdf::17                       0                       # What read queue length does an incoming req see
system.mem_ctrl.rdQLenPdf::18                       0                       # What read queue length does an incoming req see
system.mem_ctrl.rdQLenPdf::19                       0                       # What read queue length does an incoming req see
system.mem_ctrl.rdQLenPdf::20                       0                       # What read queue length does an incoming req see
system.mem_ctrl.rdQLenPdf::21                       0                       # What read queue length does an incoming req see
system.mem_ctrl.rdQLenPdf::22                       0                       # What read queue length does an incoming req see
system.mem_ctrl.rdQLenPdf::23                       0                       # What read queue length does an incoming req see
system.mem_ctrl.rdQLenPdf::24                       0                       # What read queue length does an incoming req see
system.mem_ctrl.rdQLenPdf::25                       0                       # What read queue length does an incoming req see
system.mem_ctrl.rdQLenPdf::26                       0                       # What read queue length does an incoming req see
system.mem_ctrl.rdQLenPdf::27                       0                       # What read queue length does an incoming req see
system.mem_ctrl.rdQLenPdf::28                       0                       # What read queue length does an incoming req see
system.mem_ctrl.rdQLenPdf::29                       0                       # What read queue length does an incoming req see
system.mem_ctrl.rdQLenPdf::30                       0                       # What read queue length does an incoming req see
system.mem_ctrl.rdQLenPdf::31                       0                       # What read queue length does an incoming req see
system.mem_ctrl.wrQLenPdf::0                        1                       # What write queue length does an incoming req see
system.mem_ctrl.wrQLenPdf::1                        1                       # What write queue length does an incoming req see
system.mem_ctrl.wrQLenPdf::2                        1                       # What write queue length does an incoming req see
system.mem_ctrl.wrQLenPdf::3                        1                       # What write queue length does an incoming req see
system.mem_ctrl.wrQLenPdf::4                        1                       # What write queue length does an incoming req see
system.mem_ctrl.wrQLenPdf::5                        1                       # What write queue length does an incoming req see
system.mem_ctrl.wrQLenPdf::6                        1                       # What write queue length does an incoming req see
system.mem_ctrl.wrQLenPdf::7                        1                       # What write queue length does an incoming req see
system.mem_ctrl.wrQLenPdf::8                        1                       # What write queue length does an incoming req see
system.mem_ctrl.wrQLenPdf::9                        1                       # What write queue length does an incoming req see
system.mem_ctrl.wrQLenPdf::10                       1                       # What write queue length does an incoming req see
system.mem_ctrl.wrQLenPdf::11                       1                       # What write queue length does an incoming req see
system.mem_ctrl.wrQLenPdf::12                       1                       # What write queue length does an incoming req see
system.mem_ctrl.wrQLenPdf::13                       1                       # What write queue length does an incoming req see
system.mem_ctrl.wrQLenPdf::14                       1                       # What write queue length does an incoming req see
system.mem_ctrl.wrQLenPdf::15                       8                       # What write queue length does an incoming req see
system.mem_ctrl.wrQLenPdf::16                       8                       # What write queue length does an incoming req see
system.mem_ctrl.wrQLenPdf::17                    2781                       # What write queue length does an incoming req see
system.mem_ctrl.wrQLenPdf::18                    2781                       # What write queue length does an incoming req see
system.mem_ctrl.wrQLenPdf::19                    2782                       # What write queue length does an incoming req see
system.mem_ctrl.wrQLenPdf::20                    2781                       # What write queue length does an incoming req see
system.mem_ctrl.wrQLenPdf::21                    2781                       # What write queue length does an incoming req see
system.mem_ctrl.wrQLenPdf::22                    2781                       # What write queue length does an incoming req see
system.mem_ctrl.wrQLenPdf::23                    2781                       # What write queue length does an incoming req see
system.mem_ctrl.wrQLenPdf::24                    2781                       # What write queue length does an incoming req see
system.mem_ctrl.wrQLenPdf::25                    2781                       # What write queue length does an incoming req see
system.mem_ctrl.wrQLenPdf::26                    2781                       # What write queue length does an incoming req see
system.mem_ctrl.wrQLenPdf::27                    2781                       # What write queue length does an incoming req see
system.mem_ctrl.wrQLenPdf::28                    2781                       # What write queue length does an incoming req see
system.mem_ctrl.wrQLenPdf::29                    2781                       # What write queue length does an incoming req see
system.mem_ctrl.wrQLenPdf::30                    2780                       # What write queue length does an incoming req see
system.mem_ctrl.wrQLenPdf::31                    2780                       # What write queue length does an incoming req see
system.mem_ctrl.wrQLenPdf::32                    2780                       # What write queue length does an incoming req see
system.mem_ctrl.wrQLenPdf::33                       0                       # What write queue length does an incoming req see
system.mem_ctrl.wrQLenPdf::34                       0                       # What write queue length does an incoming req see
system.mem_ctrl.wrQLenPdf::35                       0                       # What write queue length does an incoming req see
system.mem_ctrl.wrQLenPdf::36                       0                       # What write queue length does an incoming req see
system.mem_ctrl.wrQLenPdf::37                       0                       # What write queue length does an incoming req see
system.mem_ctrl.wrQLenPdf::38                       0                       # What write queue length does an incoming req see
system.mem_ctrl.wrQLenPdf::39                       0                       # What write queue length does an incoming req see
system.mem_ctrl.wrQLenPdf::40                       0                       # What write queue length does an incoming req see
system.mem_ctrl.wrQLenPdf::41                       0                       # What write queue length does an incoming req see
system.mem_ctrl.wrQLenPdf::42                       0                       # What write queue length does an incoming req see
system.mem_ctrl.wrQLenPdf::43                       0                       # What write queue length does an incoming req see
system.mem_ctrl.wrQLenPdf::44                       0                       # What write queue length does an incoming req see
system.mem_ctrl.wrQLenPdf::45                       0                       # What write queue length does an incoming req see
system.mem_ctrl.wrQLenPdf::46                       0                       # What write queue length does an incoming req see
system.mem_ctrl.wrQLenPdf::47                       0                       # What write queue length does an incoming req see
system.mem_ctrl.wrQLenPdf::48                       0                       # What write queue length does an incoming req see
system.mem_ctrl.wrQLenPdf::49                       0                       # What write queue length does an incoming req see
system.mem_ctrl.wrQLenPdf::50                       0                       # What write queue length does an incoming req see
system.mem_ctrl.wrQLenPdf::51                       0                       # What write queue length does an incoming req see
system.mem_ctrl.wrQLenPdf::52                       0                       # What write queue length does an incoming req see
system.mem_ctrl.wrQLenPdf::53                       0                       # What write queue length does an incoming req see
system.mem_ctrl.wrQLenPdf::54                       0                       # What write queue length does an incoming req see
system.mem_ctrl.wrQLenPdf::55                       0                       # What write queue length does an incoming req see
system.mem_ctrl.wrQLenPdf::56                       0                       # What write queue length does an incoming req see
system.mem_ctrl.wrQLenPdf::57                       0                       # What write queue length does an incoming req see
system.mem_ctrl.wrQLenPdf::58                       0                       # What write queue length does an incoming req see
system.mem_ctrl.wrQLenPdf::59                       0                       # What write queue length does an incoming req see
system.mem_ctrl.wrQLenPdf::60                       0                       # What write queue length does an incoming req see
system.mem_ctrl.wrQLenPdf::61                       0                       # What write queue length does an incoming req see
system.mem_ctrl.wrQLenPdf::62                       0                       # What write queue length does an incoming req see
system.mem_ctrl.wrQLenPdf::63                       0                       # What write queue length does an incoming req see
system.mem_ctrl.bytesPerActivate::samples      5879025                       # Bytes accessed per row activation
system.mem_ctrl.bytesPerActivate::mean     635.639048                       # Bytes accessed per row activation
system.mem_ctrl.bytesPerActivate::gmean    388.138765                       # Bytes accessed per row activation
system.mem_ctrl.bytesPerActivate::stdev    433.792159                       # Bytes accessed per row activation
system.mem_ctrl.bytesPerActivate::0-127       1346616     22.91%     22.91% # Bytes accessed per row activation
system.mem_ctrl.bytesPerActivate::128-255       740580     12.60%     35.50% # Bytes accessed per row activation
system.mem_ctrl.bytesPerActivate::256-383       146195      2.49%     37.99% # Bytes accessed per row activation
system.mem_ctrl.bytesPerActivate::384-511       100874      1.72%     39.70% # Bytes accessed per row activation
system.mem_ctrl.bytesPerActivate::512-639        94370      1.61%     41.31% # Bytes accessed per row activation
system.mem_ctrl.bytesPerActivate::640-767       124463      2.12%     43.43% # Bytes accessed per row activation
system.mem_ctrl.bytesPerActivate::768-895       264638      4.50%     47.93% # Bytes accessed per row activation
system.mem_ctrl.bytesPerActivate::896-1023       161043      2.74%     50.67% # Bytes accessed per row activation
system.mem_ctrl.bytesPerActivate::1024-1151      2900246     49.33%    100.00% # Bytes accessed per row activation
system.mem_ctrl.bytesPerActivate::total       5879025                       # Bytes accessed per row activation
system.mem_ctrl.rdPerTurnAround::samples         2780                       # Reads before turning the bus around for writes
system.mem_ctrl.rdPerTurnAround::mean    20987.303597                       # Reads before turning the bus around for writes
system.mem_ctrl.rdPerTurnAround::gmean    5518.905749                       # Reads before turning the bus around for writes
system.mem_ctrl.rdPerTurnAround::stdev   46109.014436                       # Reads before turning the bus around for writes
system.mem_ctrl.rdPerTurnAround::0-65535         2478     89.14%     89.14% # Reads before turning the bus around for writes
system.mem_ctrl.rdPerTurnAround::65536-131071          215      7.73%     96.87% # Reads before turning the bus around for writes
system.mem_ctrl.rdPerTurnAround::131072-196607           59      2.12%     98.99% # Reads before turning the bus around for writes
system.mem_ctrl.rdPerTurnAround::196608-262143           26      0.94%     99.93% # Reads before turning the bus around for writes
system.mem_ctrl.rdPerTurnAround::327680-393215            1      0.04%     99.96% # Reads before turning the bus around for writes
system.mem_ctrl.rdPerTurnAround::1.31072e+06-1.37626e+06            1      0.04%    100.00% # Reads before turning the bus around for writes
system.mem_ctrl.rdPerTurnAround::total           2780                       # Reads before turning the bus around for writes
system.mem_ctrl.wrPerTurnAround::samples         2780                       # Writes before turning the bus around for reads
system.mem_ctrl.wrPerTurnAround::mean       16.005396                       # Writes before turning the bus around for reads
system.mem_ctrl.wrPerTurnAround::gmean      16.005057                       # Writes before turning the bus around for reads
system.mem_ctrl.wrPerTurnAround::stdev       0.108838                       # Writes before turning the bus around for reads
system.mem_ctrl.wrPerTurnAround::16              2773     99.75%     99.75% # Writes before turning the bus around for reads
system.mem_ctrl.wrPerTurnAround::18                 6      0.22%     99.96% # Writes before turning the bus around for reads
system.mem_ctrl.wrPerTurnAround::19                 1      0.04%    100.00% # Writes before turning the bus around for reads
system.mem_ctrl.wrPerTurnAround::total           2780                       # Writes before turning the bus around for reads
system.mem_ctrl.bytesReadDRAM              3734091712                       # Total number of bytes read from DRAM
system.mem_ctrl.bytesReadWrQ                 54958528                       # Total number of bytes read from write queue
system.mem_ctrl.bytesWritten                  2847680                       # Total number of bytes written to DRAM
system.mem_ctrl.bytesReadSys                463849628                       # Total read bytes from the system interface side
system.mem_ctrl.bytesWrittenSys              33805902                       # Total written bytes from the system interface side
system.mem_ctrl.avgRdBW                       1182.20                       # Average DRAM read bandwidth in MiByte/s
system.mem_ctrl.avgWrBW                          0.90                       # Average achieved write bandwidth in MiByte/s
system.mem_ctrl.avgRdBWSys                     146.85                       # Average system read bandwidth in MiByte/s
system.mem_ctrl.avgWrBWSys                      10.70                       # Average system write bandwidth in MiByte/s
system.mem_ctrl.peakBW                       12800.00                       # Theoretical peak bandwidth in MiByte/s
system.mem_ctrl.busUtil                          9.24                       # Data bus utilization in percentage
system.mem_ctrl.busUtilRead                      9.24                       # Data bus utilization in percentage for reads
system.mem_ctrl.busUtilWrite                     0.01                       # Data bus utilization in percentage for writes
system.mem_ctrl.totGap                   3158594954000                       # Total gap between requests
system.mem_ctrl.avgGap                       49718.13                       # Average gap between requests
system.mem_ctrl.masterReadBytes::.cpu.inst    411052040                       # Per-master bytes read from memory
system.mem_ctrl.masterReadBytes::.cpu.data     46337842                       # Per-master bytes read from memory
system.mem_ctrl.masterWriteBytes::.cpu.data       338117                       # Per-master bytes write to memory
system.mem_ctrl.masterReadRate::.cpu.inst 130137618.019717797637                       # Per-master bytes read from memory rate (Bytes/sec)
system.mem_ctrl.masterReadRate::.cpu.data 14670396.434607248753                       # Per-master bytes read from memory rate (Bytes/sec)
system.mem_ctrl.masterWriteRate::.cpu.data 107046.643028393504                       # Per-master bytes write to memory rate (Bytes/sec)
system.mem_ctrl.masterReadAccesses::.cpu.inst     51381505                       # Per-master read serviced memory accesses
system.mem_ctrl.masterReadAccesses::.cpu.data      7822405                       # Per-master read serviced memory accesses
system.mem_ctrl.masterWriteAccesses::.cpu.data      4326128                       # Per-master write serviced memory accesses
system.mem_ctrl.masterReadTotalLat::.cpu.inst 1103760966250                       # Per-master read total memory access latency
system.mem_ctrl.masterReadTotalLat::.cpu.data 180358022000                       # Per-master read total memory access latency
system.mem_ctrl.masterWriteTotalLat::.cpu.data 85199914403500                       # Per-master write total memory access latency
system.mem_ctrl.masterReadAvgLat::.cpu.inst     21481.68                       # Per-master read average memory access latency
system.mem_ctrl.masterReadAvgLat::.cpu.data     23056.59                       # Per-master read average memory access latency
system.mem_ctrl.masterWriteAvgLat::.cpu.data  19694265.73                       # Per-master write average memory access latency
system.mem_ctrl.pageHitRate                     89.93                       # Row buffer hit rate, read and write combined
system.mem_ctrl.rank1.actEnergy            7129704120                       # Energy for activate commands per rank (pJ)
system.mem_ctrl.rank1.preEnergy            3789516225                       # Energy for precharge commands per rank (pJ)
system.mem_ctrl.rank1.readEnergy          23185736280                       # Energy for read commands per rank (pJ)
system.mem_ctrl.rank1.writeEnergy            92550600                       # Energy for write commands per rank (pJ)
system.mem_ctrl.rank1.refreshEnergy      249336706320.000031                       # Energy for refresh commands per rank (pJ)
system.mem_ctrl.rank1.actBackEnergy      1122204332100                       # Energy for active background per rank (pJ)
system.mem_ctrl.rank1.preBackEnergy      267886336320                       # Energy for precharge background per rank (pJ)
system.mem_ctrl.rank1.actPowerDownEnergy            0                       # Energy for active power-down per rank (pJ)
system.mem_ctrl.rank1.prePowerDownEnergy            0                       # Energy for precharge power-down per rank (pJ)
system.mem_ctrl.rank1.selfRefreshEnergy             0                       # Energy for self refresh per rank (pJ)
system.mem_ctrl.rank1.totalEnergy        1673624881965                       # Total energy per rank (pJ)
system.mem_ctrl.rank1.averagePower         529.863702                       # Core power per rank (mW)
system.mem_ctrl.rank1.totalIdleTime                 0                       # Total Idle time Per DRAM Rank
system.mem_ctrl.rank1.memoryStateTime::IDLE 685505102000                       # Time in different power states
system.mem_ctrl.rank1.memoryStateTime::REF 105472380000                       # Time in different power states
system.mem_ctrl.rank1.memoryStateTime::SREF            0                       # Time in different power states
system.mem_ctrl.rank1.memoryStateTime::PRE_PDN            0                       # Time in different power states
system.mem_ctrl.rank1.memoryStateTime::ACT 2367617598000                       # Time in different power states
system.mem_ctrl.rank1.memoryStateTime::ACT_PDN            0                       # Time in different power states
system.mem_ctrl.rank0.actEnergy           34846562940                       # Energy for activate commands per rank (pJ)
system.mem_ctrl.rank0.preEnergy           18521383650                       # Energy for precharge commands per rank (pJ)
system.mem_ctrl.rank0.readEnergy         393398870340                       # Energy for read commands per rank (pJ)
system.mem_ctrl.rank0.writeEnergy           139713300                       # Energy for write commands per rank (pJ)
system.mem_ctrl.rank0.refreshEnergy      249336706320.000031                       # Energy for refresh commands per rank (pJ)
system.mem_ctrl.rank0.actBackEnergy      1425082969200                       # Energy for active background per rank (pJ)
system.mem_ctrl.rank0.preBackEnergy       12830641920                       # Energy for precharge background per rank (pJ)
system.mem_ctrl.rank0.actPowerDownEnergy            0                       # Energy for active power-down per rank (pJ)
system.mem_ctrl.rank0.prePowerDownEnergy            0                       # Energy for precharge power-down per rank (pJ)
system.mem_ctrl.rank0.selfRefreshEnergy             0                       # Energy for self refresh per rank (pJ)
system.mem_ctrl.rank0.totalEnergy        2134156847670                       # Total energy per rank (pJ)
system.mem_ctrl.rank0.averagePower         675.666489                       # Core power per rank (mW)
system.mem_ctrl.rank0.totalIdleTime                 0                       # Total Idle time Per DRAM Rank
system.mem_ctrl.rank0.memoryStateTime::IDLE  19914829250                       # Time in different power states
system.mem_ctrl.rank0.memoryStateTime::REF 105472380000                       # Time in different power states
system.mem_ctrl.rank0.memoryStateTime::SREF            0                       # Time in different power states
system.mem_ctrl.rank0.memoryStateTime::PRE_PDN            0                       # Time in different power states
system.mem_ctrl.rank0.memoryStateTime::ACT 3033207870750                       # Time in different power states
system.mem_ctrl.rank0.memoryStateTime::ACT_PDN            0                       # Time in different power states
system.mem_ctrl.power_state.pwrStateResidencyTicks::UNDEFINED 3158595080000                       # Cumulative time (in ticks) in various power states
system.cache.blocked_cycles::no_mshrs               0                       # number of cycles access was blocked
system.cache.blocked_cycles::no_targets             0                       # number of cycles access was blocked
system.cache.blocked::no_mshrs                      0                       # number of cycles access was blocked
system.cache.blocked::no_targets                    0                       # number of cycles access was blocked
system.cache.avg_blocked_cycles::no_mshrs          nan                       # average number of cycles each access was blocked
system.cache.avg_blocked_cycles::no_targets          nan                       # average number of cycles each access was blocked
system.cache.replacements                           0                       # number of replacements
system.cache.power_state.pwrStateResidencyTicks::UNDEFINED 3158595080000                       # Cumulative time (in ticks) in various power states
system.cache.tags.tagsinuse                         0                       # Cycle average of tags in use
system.cache.tags.total_refs                        0                       # Total number of references to valid blocks.
system.cache.tags.sampled_refs                      0                       # Sample count of references to valid blocks.
system.cache.tags.avg_refs                        nan                       # Average number of references to valid blocks.
system.cache.tags.warmup_cycle                      0                       # Cycle when the warmup percentage was hit.
system.cache.tags.tag_accesses                      0                       # Number of tag accesses
system.cache.tags.data_accesses                     0                       # Number of data accesses
system.cache.tags.power_state.pwrStateResidencyTicks::UNDEFINED 3158595080000                       # Cumulative time (in ticks) in various power states
system.clk_domain.clock                          1000                       # Clock period in ticks
system.clk_domain.voltage_domain.voltage            1                       # Voltage in Volts
system.cachebus.snoops                              0                       # Total snoops (count)
system.cachebus.snoopTraffic                        0                       # Total snoop traffic (bytes)
system.cachebus.snoop_fanout::samples               0                       # Request fanout histogram
system.cachebus.snoop_fanout::mean                nan                       # Request fanout histogram
system.cachebus.snoop_fanout::stdev               nan                       # Request fanout histogram
system.cachebus.snoop_fanout::underflows            0                       # Request fanout histogram
system.cachebus.snoop_fanout::0                     0                       # Request fanout histogram
system.cachebus.snoop_fanout::overflows             0                       # Request fanout histogram
system.cachebus.snoop_fanout::min_value             0                       # Request fanout histogram
system.cachebus.snoop_fanout::max_value             0                       # Request fanout histogram
system.cachebus.snoop_fanout::total                 0                       # Request fanout histogram
system.cachebus.power_state.pwrStateResidencyTicks::UNDEFINED 3158595080000                       # Cumulative time (in ticks) in various power states
system.cpu.dtb.walker.power_state.pwrStateResidencyTicks::UNDEFINED 3158595080000                       # Cumulative time (in ticks) in various power states
system.cpu.interrupts.clk_domain.clock          16000                       # Clock period in ticks
system.cpu.itb.walker.power_state.pwrStateResidencyTicks::UNDEFINED 3158595080000                       # Cumulative time (in ticks) in various power states
system.cpu.power_state.numTransitions               1                       # Number of power state transitions
system.cpu.power_state.pwrStateResidencyTicks::ON 3158595080000                       # Cumulative time (in ticks) in various power states

---------- End Simulation Statistics   ----------
