
---------- Begin Simulation Statistics ----------
final_tick                               2347431952000                       # Number of ticks from beginning of simulation (restored from checkpoints and never reset)
host_inst_rate                                 224301                       # Simulator instruction rate (inst/s)
host_mem_usage                                 761792                       # Number of bytes of host memory used
host_op_rate                                   423074                       # Simulator op (including micro ops) rate (op/s)
host_seconds                                   133.75                       # Real time elapsed on the host
host_tick_rate                            17551022555                       # Simulator tick rate (ticks/s)
sim_freq                                 1000000000000                       # Frequency of simulated ticks
sim_insts                                    30000001                       # Number of instructions simulated
sim_ops                                      56585698                       # Number of ops (including micro ops) simulated
sim_seconds                                  2.347432                       # Number of seconds simulated
sim_ticks                                2347431952000                       # Number of ticks simulated
system.cachebus.snoop_filter.hit_multi_requests            0                       # Number of requests hitting in the snoop filter with multiple (>1) holders of the requested data.
system.cachebus.snoop_filter.hit_multi_snoops            0                       # Number of snoops hitting in the snoop filter with multiple (>1) holders of the requested data.
system.cachebus.snoop_filter.hit_single_requests            0                       # Number of requests hitting in the snoop filter with a single holder of the requested data.
system.cachebus.snoop_filter.hit_single_snoops            0                       # Number of snoops hitting in the snoop filter with a single holder of the requested data.
system.cachebus.snoop_filter.tot_requests            0                       # Total number of requests made to the snoop filter.
system.cachebus.snoop_filter.tot_snoops             0                       # Total number of snoops made to the snoop filter.
system.cpu.Branches                           6826193                       # Number of branches fetched
system.cpu.committedInsts                    30000001                       # Number of instructions committed
system.cpu.committedOps                      56585698                       # Number of ops (including micro ops) committed
system.cpu.dtb.rdAccesses                     5788419                       # TLB accesses on read requests
system.cpu.dtb.rdMisses                          1674                       # TLB misses on read requests
system.cpu.dtb.wrAccesses                     3207316                       # TLB accesses on write requests
system.cpu.dtb.wrMisses                           180                       # TLB misses on write requests
system.cpu.idle_fraction                            0                       # Percentage of idle cycles
system.cpu.itb.rdAccesses                           0                       # TLB accesses on read requests
system.cpu.itb.rdMisses                             0                       # TLB misses on read requests
system.cpu.itb.wrAccesses                    38219762                       # TLB accesses on write requests
system.cpu.itb.wrMisses                           230                       # TLB misses on write requests
system.cpu.not_idle_fraction                        1                       # Percentage of non-idle cycles
system.cpu.numCycles                       2347431952                       # number of cpu cycles simulated
system.cpu.numWorkItemsCompleted                    0                       # number of work items this cpu completed
system.cpu.numWorkItemsStarted                      0                       # number of work items this cpu started
system.cpu.num_busy_cycles                 2347431952                       # Number of busy cycles
system.cpu.num_cc_register_reads             30595191                       # number of times the CC registers were read
system.cpu.num_cc_register_writes            16622254                       # number of times the CC registers were written
system.cpu.num_conditional_control_insts      3880676                       # number of instructions that are conditional controls
system.cpu.num_fp_alu_accesses                 184416                       # Number of float alu accesses
system.cpu.num_fp_insts                        184416                       # number of float instructions
system.cpu.num_fp_register_reads               311255                       # number of times the floating registers were read
system.cpu.num_fp_register_writes              158288                       # number of times the floating registers were written
system.cpu.num_func_calls                     1881918                       # number of times a function call or return occured
system.cpu.num_idle_cycles                          0                       # Number of idle cycles
system.cpu.num_int_alu_accesses              56424749                       # Number of integer alu accesses
system.cpu.num_int_insts                     56424749                       # number of integer instructions
system.cpu.num_int_register_reads           113400992                       # number of times the integer registers were read
system.cpu.num_int_register_writes           46374072                       # number of times the integer registers were written
system.cpu.num_load_insts                     5787373                       # Number of load instructions
system.cpu.num_mem_refs                       8994506                       # number of memory refs
system.cpu.num_store_insts                    3207133                       # Number of store instructions
system.cpu.num_vec_alu_accesses                     0                       # Number of vector alu accesses
system.cpu.num_vec_insts                            0                       # number of vector instructions
system.cpu.num_vec_register_reads                   0                       # number of times the vector registers were read
system.cpu.num_vec_register_writes                  0                       # number of times the vector registers were written
system.cpu.op_class::No_OpClass                 30676      0.05%      0.05% # Class of executed instruction
system.cpu.op_class::IntAlu                  47416633     83.80%     83.85% # Class of executed instruction
system.cpu.op_class::IntMult                       22      0.00%     83.85% # Class of executed instruction
system.cpu.op_class::IntDiv                        42      0.00%     83.85% # Class of executed instruction
system.cpu.op_class::FloatAdd                    3984      0.01%     83.86% # Class of executed instruction
system.cpu.op_class::FloatCmp                       0      0.00%     83.86% # Class of executed instruction
system.cpu.op_class::FloatCvt                       0      0.00%     83.86% # Class of executed instruction
system.cpu.op_class::FloatMult                      0      0.00%     83.86% # Class of executed instruction
system.cpu.op_class::FloatMultAcc                   0      0.00%     83.86% # Class of executed instruction
system.cpu.op_class::FloatDiv                       0      0.00%     83.86% # Class of executed instruction
system.cpu.op_class::FloatMisc                      0      0.00%     83.86% # Class of executed instruction
system.cpu.op_class::FloatSqrt                      0      0.00%     83.86% # Class of executed instruction
system.cpu.op_class::SimdAdd                       20      0.00%     83.86% # Class of executed instruction
system.cpu.op_class::SimdAddAcc                     0      0.00%     83.86% # Class of executed instruction
system.cpu.op_class::SimdAlu                    54168      0.10%     83.95% # Class of executed instruction
system.cpu.op_class::SimdCmp                     1606      0.00%     83.96% # Class of executed instruction
system.cpu.op_class::SimdCvt                    32076      0.06%     84.01% # Class of executed instruction
system.cpu.op_class::SimdMisc                   52023      0.09%     84.10% # Class of executed instruction
system.cpu.op_class::SimdMult                       0      0.00%     84.10% # Class of executed instruction
system.cpu.op_class::SimdMultAcc                    0      0.00%     84.10% # Class of executed instruction
system.cpu.op_class::SimdShift                      0      0.00%     84.10% # Class of executed instruction
system.cpu.op_class::SimdShiftAcc                   0      0.00%     84.10% # Class of executed instruction
system.cpu.op_class::SimdDiv                        0      0.00%     84.10% # Class of executed instruction
system.cpu.op_class::SimdSqrt                       0      0.00%     84.10% # Class of executed instruction
system.cpu.op_class::SimdFloatAdd                   0      0.00%     84.10% # Class of executed instruction
system.cpu.op_class::SimdFloatAlu                   0      0.00%     84.10% # Class of executed instruction
system.cpu.op_class::SimdFloatCmp                   0      0.00%     84.10% # Class of executed instruction
system.cpu.op_class::SimdFloatCvt                   0      0.00%     84.10% # Class of executed instruction
system.cpu.op_class::SimdFloatDiv                  25      0.00%     84.10% # Class of executed instruction
system.cpu.op_class::SimdFloatMisc                  0      0.00%     84.10% # Class of executed instruction
system.cpu.op_class::SimdFloatMult                  0      0.00%     84.10% # Class of executed instruction
system.cpu.op_class::SimdFloatMultAcc               0      0.00%     84.10% # Class of executed instruction
system.cpu.op_class::SimdFloatSqrt                  0      0.00%     84.10% # Class of executed instruction
system.cpu.op_class::SimdReduceAdd                  0      0.00%     84.10% # Class of executed instruction
system.cpu.op_class::SimdReduceAlu                  0      0.00%     84.10% # Class of executed instruction
system.cpu.op_class::SimdReduceCmp                  0      0.00%     84.10% # Class of executed instruction
system.cpu.op_class::SimdFloatReduceAdd             0      0.00%     84.10% # Class of executed instruction
system.cpu.op_class::SimdFloatReduceCmp             0      0.00%     84.10% # Class of executed instruction
system.cpu.op_class::SimdAes                        0      0.00%     84.10% # Class of executed instruction
system.cpu.op_class::SimdAesMix                     0      0.00%     84.10% # Class of executed instruction
system.cpu.op_class::SimdSha1Hash                   0      0.00%     84.10% # Class of executed instruction
system.cpu.op_class::SimdSha1Hash2                  0      0.00%     84.10% # Class of executed instruction
system.cpu.op_class::SimdSha256Hash                 0      0.00%     84.10% # Class of executed instruction
system.cpu.op_class::SimdSha256Hash2                0      0.00%     84.10% # Class of executed instruction
system.cpu.op_class::SimdShaSigma2                  0      0.00%     84.10% # Class of executed instruction
system.cpu.op_class::SimdShaSigma3                  0      0.00%     84.10% # Class of executed instruction
system.cpu.op_class::SimdPredAlu                    0      0.00%     84.10% # Class of executed instruction
system.cpu.op_class::MemRead                  5760761     10.18%     94.29% # Class of executed instruction
system.cpu.op_class::MemWrite                 3205140      5.66%     99.95% # Class of executed instruction
system.cpu.op_class::FloatMemRead               26612      0.05%    100.00% # Class of executed instruction
system.cpu.op_class::FloatMemWrite               1993      0.00%    100.00% # Class of executed instruction
system.cpu.op_class::IprAccess                      0      0.00%    100.00% # Class of executed instruction
system.cpu.op_class::InstPrefetch                   0      0.00%    100.00% # Class of executed instruction
system.cpu.op_class::total                   56585781                       # Class of executed instruction
system.cpu.workload.numSyscalls                    16                       # Number of system calls
system.membus.snoop_filter.hit_multi_requests            0                       # Number of requests hitting in the snoop filter with multiple (>1) holders of the requested data.
system.membus.snoop_filter.hit_multi_snoops            0                       # Number of snoops hitting in the snoop filter with multiple (>1) holders of the requested data.
system.membus.snoop_filter.hit_single_requests            0                       # Number of requests hitting in the snoop filter with a single holder of the requested data.
system.membus.snoop_filter.hit_single_snoops            0                       # Number of snoops hitting in the snoop filter with a single holder of the requested data.
system.membus.snoop_filter.tot_requests             0                       # Total number of requests made to the snoop filter.
system.membus.snoop_filter.tot_snoops               0                       # Total number of snoops made to the snoop filter.
system.membus.trans_dist::ReadReq            44008181                       # Transaction distribution
system.membus.trans_dist::ReadResp           44008180                       # Transaction distribution
system.membus.trans_dist::WriteReq            3207233                       # Transaction distribution
system.membus.trans_dist::WriteResp           3207233                       # Transaction distribution
system.membus.pkt_count_system.cpu.icache_port::system.mem_ctrl.port     76439523                       # Packet count per connected master and slave (bytes)
system.membus.pkt_count_system.cpu.icache_port::total     76439523                       # Packet count per connected master and slave (bytes)
system.membus.pkt_count_system.memobj.mem_side::system.mem_ctrl.port     17991304                       # Packet count per connected master and slave (bytes)
system.membus.pkt_count_system.memobj.mem_side::total     17991304                       # Packet count per connected master and slave (bytes)
system.membus.pkt_count::total               94430827                       # Packet count per connected master and slave (bytes)
system.membus.pkt_size_system.cpu.icache_port::system.mem_ctrl.port    305758088                       # Cumulative packet size per connected master and slave (bytes)
system.membus.pkt_size_system.cpu.icache_port::total    305758088                       # Cumulative packet size per connected master and slave (bytes)
system.membus.pkt_size_system.memobj.mem_side::system.mem_ctrl.port     63971248                       # Cumulative packet size per connected master and slave (bytes)
system.membus.pkt_size_system.memobj.mem_side::total     63971248                       # Cumulative packet size per connected master and slave (bytes)
system.membus.pkt_size::total               369729336                       # Cumulative packet size per connected master and slave (bytes)
system.membus.snoops                                0                       # Total snoops (count)
system.membus.snoopTraffic                          0                       # Total snoop traffic (bytes)
system.membus.snoop_fanout::samples          47215414                       # Request fanout histogram
system.membus.snoop_fanout::mean                    0                       # Request fanout histogram
system.membus.snoop_fanout::stdev                   0                       # Request fanout histogram
system.membus.snoop_fanout::underflows              0      0.00%      0.00% # Request fanout histogram
system.membus.snoop_fanout::0                47215414    100.00%    100.00% # Request fanout histogram
system.membus.snoop_fanout::1                       0      0.00%    100.00% # Request fanout histogram
system.membus.snoop_fanout::overflows               0      0.00%    100.00% # Request fanout histogram
system.membus.snoop_fanout::min_value               0                       # Request fanout histogram
system.membus.snoop_fanout::max_value               0                       # Request fanout histogram
system.membus.snoop_fanout::total            47215414                       # Request fanout histogram
system.membus.reqLayer2.occupancy         50422647000                       # Layer occupancy (ticks)
system.membus.reqLayer2.utilization               2.1                       # Layer utilization (%)
system.membus.respLayer1.occupancy        16580570250                       # Layer occupancy (ticks)
system.membus.respLayer1.utilization              0.7                       # Layer utilization (%)
system.membus.respLayer0.occupancy        86645982000                       # Layer occupancy (ticks)
system.membus.respLayer0.utilization              3.7                       # Layer utilization (%)
system.membus.power_state.pwrStateResidencyTicks::UNDEFINED 2347431952000                       # Cumulative time (in ticks) in various power states
system.mem_ctrl.bytes_read::.cpu.inst       305758088                       # Number of bytes read from this memory
system.mem_ctrl.bytes_read::.cpu.data        38961791                       # Number of bytes read from this memory
system.mem_ctrl.bytes_read::total           344719879                       # Number of bytes read from this memory
system.mem_ctrl.bytes_inst_read::.cpu.inst    305758088                       # Number of instructions bytes read from this memory
system.mem_ctrl.bytes_inst_read::total      305758088                       # Number of instructions bytes read from this memory
system.mem_ctrl.bytes_written::.cpu.data     25009457                       # Number of bytes written to this memory
system.mem_ctrl.bytes_written::total         25009457                       # Number of bytes written to this memory
system.mem_ctrl.num_reads::.cpu.inst         38219761                       # Number of read requests responded to by this memory
system.mem_ctrl.num_reads::.cpu.data          5788419                       # Number of read requests responded to by this memory
system.mem_ctrl.num_reads::total             44008180                       # Number of read requests responded to by this memory
system.mem_ctrl.num_writes::.cpu.data         3207233                       # Number of write requests responded to by this memory
system.mem_ctrl.num_writes::total             3207233                       # Number of write requests responded to by this memory
system.mem_ctrl.bw_read::.cpu.inst          130252162                       # Total read bandwidth from this memory (bytes/s)
system.mem_ctrl.bw_read::.cpu.data           16597623                       # Total read bandwidth from this memory (bytes/s)
system.mem_ctrl.bw_read::total              146849786                       # Total read bandwidth from this memory (bytes/s)
system.mem_ctrl.bw_inst_read::.cpu.inst     130252162                       # Instruction read bandwidth from this memory (bytes/s)
system.mem_ctrl.bw_inst_read::total         130252162                       # Instruction read bandwidth from this memory (bytes/s)
system.mem_ctrl.bw_write::.cpu.data          10653965                       # Write bandwidth from this memory (bytes/s)
system.mem_ctrl.bw_write::total              10653965                       # Write bandwidth from this memory (bytes/s)
system.mem_ctrl.bw_total::.cpu.inst         130252162                       # Total bandwidth to/from this memory (bytes/s)
system.mem_ctrl.bw_total::.cpu.data          27251588                       # Total bandwidth to/from this memory (bytes/s)
system.mem_ctrl.bw_total::total             157503750                       # Total bandwidth to/from this memory (bytes/s)
system.mem_ctrl.avgPriority_.cpu.inst::samples  38219762.00                       # Average QoS priority value for accepted requests
system.mem_ctrl.avgPriority_.cpu.data::samples   5182826.00                       # Average QoS priority value for accepted requests
system.mem_ctrl.priorityMinLatency       0.000000018750                       # per QoS priority minimum request to response latency (s)
system.mem_ctrl.priorityMaxLatency       0.320152115750                       # per QoS priority maximum request to response latency (s)
system.mem_ctrl.numReadWriteTurnArounds          2049                       # Number of turnarounds from READ to WRITE
system.mem_ctrl.numWriteReadTurnArounds          2049                       # Number of turnarounds from WRITE to READ
system.mem_ctrl.numStayReadState             90547559                       # Number of times bus staying in READ state
system.mem_ctrl.numStayWriteState               30772                       # Number of times bus staying in WRITE state
system.mem_ctrl.readReqs                     44008181                       # Number of read requests accepted
system.mem_ctrl.writeReqs                     3207233                       # Number of write requests accepted
system.mem_ctrl.readBursts                   44008181                       # Number of DRAM read bursts, including those serviced by the write queue
system.mem_ctrl.writeBursts                   3207233                       # Number of DRAM write bursts, including those merged in the write queue
system.mem_ctrl.servicedByWrQ                  638418                       # Number of DRAM read bursts serviced by the write queue
system.mem_ctrl.mergedWrBursts                3174408                       # Number of DRAM write bursts merged with an existing one
system.mem_ctrl.neitherReadNorWriteReqs             0                       # Number of requests that are neither read nor write
system.mem_ctrl.perBankRdBursts::0             107840                       # Per bank write bursts
system.mem_ctrl.perBankRdBursts::1             780716                       # Per bank write bursts
system.mem_ctrl.perBankRdBursts::2            3173075                       # Per bank write bursts
system.mem_ctrl.perBankRdBursts::3             187726                       # Per bank write bursts
system.mem_ctrl.perBankRdBursts::4           34364847                       # Per bank write bursts
system.mem_ctrl.perBankRdBursts::5            1654383                       # Per bank write bursts
system.mem_ctrl.perBankRdBursts::6              83275                       # Per bank write bursts
system.mem_ctrl.perBankRdBursts::7             465862                       # Per bank write bursts
system.mem_ctrl.perBankRdBursts::8              74084                       # Per bank write bursts
system.mem_ctrl.perBankRdBursts::9             307951                       # Per bank write bursts
system.mem_ctrl.perBankRdBursts::10            619515                       # Per bank write bursts
system.mem_ctrl.perBankRdBursts::11            535315                       # Per bank write bursts
system.mem_ctrl.perBankRdBursts::12            357297                       # Per bank write bursts
system.mem_ctrl.perBankRdBursts::13            171069                       # Per bank write bursts
system.mem_ctrl.perBankRdBursts::14            209582                       # Per bank write bursts
system.mem_ctrl.perBankRdBursts::15            277226                       # Per bank write bursts
system.mem_ctrl.perBankWrBursts::0                804                       # Per bank write bursts
system.mem_ctrl.perBankWrBursts::1                821                       # Per bank write bursts
system.mem_ctrl.perBankWrBursts::2               7793                       # Per bank write bursts
system.mem_ctrl.perBankWrBursts::3               2034                       # Per bank write bursts
system.mem_ctrl.perBankWrBursts::4               2235                       # Per bank write bursts
system.mem_ctrl.perBankWrBursts::5               2381                       # Per bank write bursts
system.mem_ctrl.perBankWrBursts::6               1710                       # Per bank write bursts
system.mem_ctrl.perBankWrBursts::7               1860                       # Per bank write bursts
system.mem_ctrl.perBankWrBursts::8               2162                       # Per bank write bursts
system.mem_ctrl.perBankWrBursts::9               3106                       # Per bank write bursts
system.mem_ctrl.perBankWrBursts::10              1661                       # Per bank write bursts
system.mem_ctrl.perBankWrBursts::11              1513                       # Per bank write bursts
system.mem_ctrl.perBankWrBursts::12              1645                       # Per bank write bursts
system.mem_ctrl.perBankWrBursts::13               912                       # Per bank write bursts
system.mem_ctrl.perBankWrBursts::14              1176                       # Per bank write bursts
system.mem_ctrl.perBankWrBursts::15               980                       # Per bank write bursts
system.mem_ctrl.avgRdQLen                        1.00                       # Average read queue length when enqueuing
system.mem_ctrl.avgWrQLen                       27.02                       # Average write queue length when enqueuing
system.mem_ctrl.totQLat                  141088615250                       # Total ticks spent queuing
system.mem_ctrl.totBusLat                216848815000                       # Total ticks spent in databus transfers
system.mem_ctrl.totMemAccLat             954271671500                       # Total ticks spent from burst creation until serviced by the DRAM
system.mem_ctrl.avgQLat                       3253.16                       # Average queueing delay per DRAM burst
system.mem_ctrl.avgBusLat                     5000.00                       # Average bus latency per DRAM burst
system.mem_ctrl.avgMemAccLat                 22003.16                       # Average memory access latency per DRAM burst
system.mem_ctrl.numRdRetry                          0                       # Number of times read queue was full causing retry
system.mem_ctrl.numWrRetry                          0                       # Number of times write queue was full causing retry
system.mem_ctrl.readRowHits                  39010257                       # Number of row buffer hits during reads
system.mem_ctrl.writeRowHits                    28827                       # Number of row buffer hits during writes
system.mem_ctrl.readRowHitRate                  89.95                       # Row buffer hit rate for reads
system.mem_ctrl.writeRowHitRate                 87.82                       # Row buffer hit rate for writes
system.mem_ctrl.readPktSize::0                  52260                       # Read request sizes (log2)
system.mem_ctrl.readPktSize::1                 429199                       # Read request sizes (log2)
system.mem_ctrl.readPktSize::2                1100768                       # Read request sizes (log2)
system.mem_ctrl.readPktSize::3               42425954                       # Read request sizes (log2)
system.mem_ctrl.readPktSize::4                      0                       # Read request sizes (log2)
system.mem_ctrl.readPktSize::5                      0                       # Read request sizes (log2)
system.mem_ctrl.readPktSize::6                      0                       # Read request sizes (log2)
system.mem_ctrl.writePktSize::0                 13564                       # Write request sizes (log2)
system.mem_ctrl.writePktSize::1                  2238                       # Write request sizes (log2)
system.mem_ctrl.writePktSize::2                134923                       # Write request sizes (log2)
system.mem_ctrl.writePktSize::3               3056508                       # Write request sizes (log2)
system.mem_ctrl.writePktSize::4                     0                       # Write request sizes (log2)
system.mem_ctrl.writePktSize::5                     0                       # Write request sizes (log2)
system.mem_ctrl.writePktSize::6                     0                       # Write request sizes (log2)
system.mem_ctrl.rdQLenPdf::0                 43368795                       # What read queue length does an incoming req see
system.mem_ctrl.rdQLenPdf::1                      968                       # What read queue length does an incoming req see
system.mem_ctrl.rdQLenPdf::2                        0                       # What read queue length does an incoming req see
system.mem_ctrl.rdQLenPdf::3                        0                       # What read queue length does an incoming req see
system.mem_ctrl.rdQLenPdf::4                        0                       # What read queue length does an incoming req see
system.mem_ctrl.rdQLenPdf::5                        0                       # What read queue length does an incoming req see
system.mem_ctrl.rdQLenPdf::6                        0                       # What read queue length does an incoming req see
system.mem_ctrl.rdQLenPdf::7                        0                       # What read queue length does an incoming req see
system.mem_ctrl.rdQLenPdf::8                        0                       # What read queue length does an incoming req see
system.mem_ctrl.rdQLenPdf::9                        0                       # What read queue length does an incoming req see
system.mem_ctrl.rdQLenPdf::10                       0                       # What read queue length does an incoming req see
system.mem_ctrl.rdQLenPdf::11                       0                       # What read queue length does an incoming req see
system.mem_ctrl.rdQLenPdf::12                       0                       # What read queue length does an incoming req see
system.mem_ctrl.rdQLenPdf::13                       0                       # What read queue length does an incoming req see
system.mem_ctrl.rdQLenPdf::14                       0                       # What read queue length does an incoming req see
system.mem_ctrl.rdQLenPdf::15                       0                       # What read queue length does an incoming req see
system.mem_ctrl.rdQLenPdf::16                       0                       # What read queue length does an incoming req see
system.mem_ctrl.rdQLenPdf::17                       0                       # What read queue length does an incoming req see
system.mem_ctrl.rdQLenPdf::18                       0                       # What read queue length does an incoming req see
system.mem_ctrl.rdQLenPdf::19                       0                       # What read queue length does an incoming req see
system.mem_ctrl.rdQLenPdf::20                       0                       # What read queue length does an incoming req see
system.mem_ctrl.rdQLenPdf::21                       0                       # What read queue length does an incoming req see
system.mem_ctrl.rdQLenPdf::22                       0                       # What read queue length does an incoming req see
system.mem_ctrl.rdQLenPdf::23                       0                       # What read queue length does an incoming req see
system.mem_ctrl.rdQLenPdf::24                       0                       # What read queue length does an incoming req see
system.mem_ctrl.rdQLenPdf::25                       0                       # What read queue length does an incoming req see
system.mem_ctrl.rdQLenPdf::26                       0                       # What read queue length does an incoming req see
system.mem_ctrl.rdQLenPdf::27                       0                       # What read queue length does an incoming req see
system.mem_ctrl.rdQLenPdf::28                       0                       # What read queue length does an incoming req see
system.mem_ctrl.rdQLenPdf::29                       0                       # What read queue length does an incoming req see
system.mem_ctrl.rdQLenPdf::30                       0                       # What read queue length does an incoming req see
system.mem_ctrl.rdQLenPdf::31                       0                       # What read queue length does an incoming req see
system.mem_ctrl.wrQLenPdf::0                        1                       # What write queue length does an incoming req see
system.mem_ctrl.wrQLenPdf::1                        1                       # What write queue length does an incoming req see
system.mem_ctrl.wrQLenPdf::2                        1                       # What write queue length does an incoming req see
system.mem_ctrl.wrQLenPdf::3                        1                       # What write queue length does an incoming req see
system.mem_ctrl.wrQLenPdf::4                        1                       # What write queue length does an incoming req see
system.mem_ctrl.wrQLenPdf::5                        1                       # What write queue length does an incoming req see
system.mem_ctrl.wrQLenPdf::6                        1                       # What write queue length does an incoming req see
system.mem_ctrl.wrQLenPdf::7                        1                       # What write queue length does an incoming req see
system.mem_ctrl.wrQLenPdf::8                        1                       # What write queue length does an incoming req see
system.mem_ctrl.wrQLenPdf::9                        1                       # What write queue length does an incoming req see
system.mem_ctrl.wrQLenPdf::10                       1                       # What write queue length does an incoming req see
system.mem_ctrl.wrQLenPdf::11                       1                       # What write queue length does an incoming req see
system.mem_ctrl.wrQLenPdf::12                       1                       # What write queue length does an incoming req see
system.mem_ctrl.wrQLenPdf::13                       1                       # What write queue length does an incoming req see
system.mem_ctrl.wrQLenPdf::14                       1                       # What write queue length does an incoming req see
system.mem_ctrl.wrQLenPdf::15                       5                       # What write queue length does an incoming req see
system.mem_ctrl.wrQLenPdf::16                       5                       # What write queue length does an incoming req see
system.mem_ctrl.wrQLenPdf::17                    2050                       # What write queue length does an incoming req see
system.mem_ctrl.wrQLenPdf::18                    2050                       # What write queue length does an incoming req see
system.mem_ctrl.wrQLenPdf::19                    2051                       # What write queue length does an incoming req see
system.mem_ctrl.wrQLenPdf::20                    2050                       # What write queue length does an incoming req see
system.mem_ctrl.wrQLenPdf::21                    2050                       # What write queue length does an incoming req see
system.mem_ctrl.wrQLenPdf::22                    2050                       # What write queue length does an incoming req see
system.mem_ctrl.wrQLenPdf::23                    2050                       # What write queue length does an incoming req see
system.mem_ctrl.wrQLenPdf::24                    2050                       # What write queue length does an incoming req see
system.mem_ctrl.wrQLenPdf::25                    2050                       # What write queue length does an incoming req see
system.mem_ctrl.wrQLenPdf::26                    2050                       # What write queue length does an incoming req see
system.mem_ctrl.wrQLenPdf::27                    2050                       # What write queue length does an incoming req see
system.mem_ctrl.wrQLenPdf::28                    2050                       # What write queue length does an incoming req see
system.mem_ctrl.wrQLenPdf::29                    2050                       # What write queue length does an incoming req see
system.mem_ctrl.wrQLenPdf::30                    2050                       # What write queue length does an incoming req see
system.mem_ctrl.wrQLenPdf::31                    2050                       # What write queue length does an incoming req see
system.mem_ctrl.wrQLenPdf::32                    2049                       # What write queue length does an incoming req see
system.mem_ctrl.wrQLenPdf::33                       0                       # What write queue length does an incoming req see
system.mem_ctrl.wrQLenPdf::34                       0                       # What write queue length does an incoming req see
system.mem_ctrl.wrQLenPdf::35                       0                       # What write queue length does an incoming req see
system.mem_ctrl.wrQLenPdf::36                       0                       # What write queue length does an incoming req see
system.mem_ctrl.wrQLenPdf::37                       0                       # What write queue length does an incoming req see
system.mem_ctrl.wrQLenPdf::38                       0                       # What write queue length does an incoming req see
system.mem_ctrl.wrQLenPdf::39                       0                       # What write queue length does an incoming req see
system.mem_ctrl.wrQLenPdf::40                       0                       # What write queue length does an incoming req see
system.mem_ctrl.wrQLenPdf::41                       0                       # What write queue length does an incoming req see
system.mem_ctrl.wrQLenPdf::42                       0                       # What write queue length does an incoming req see
system.mem_ctrl.wrQLenPdf::43                       0                       # What write queue length does an incoming req see
system.mem_ctrl.wrQLenPdf::44                       0                       # What write queue length does an incoming req see
system.mem_ctrl.wrQLenPdf::45                       0                       # What write queue length does an incoming req see
system.mem_ctrl.wrQLenPdf::46                       0                       # What write queue length does an incoming req see
system.mem_ctrl.wrQLenPdf::47                       0                       # What write queue length does an incoming req see
system.mem_ctrl.wrQLenPdf::48                       0                       # What write queue length does an incoming req see
system.mem_ctrl.wrQLenPdf::49                       0                       # What write queue length does an incoming req see
system.mem_ctrl.wrQLenPdf::50                       0                       # What write queue length does an incoming req see
system.mem_ctrl.wrQLenPdf::51                       0                       # What write queue length does an incoming req see
system.mem_ctrl.wrQLenPdf::52                       0                       # What write queue length does an incoming req see
system.mem_ctrl.wrQLenPdf::53                       0                       # What write queue length does an incoming req see
system.mem_ctrl.wrQLenPdf::54                       0                       # What write queue length does an incoming req see
system.mem_ctrl.wrQLenPdf::55                       0                       # What write queue length does an incoming req see
system.mem_ctrl.wrQLenPdf::56                       0                       # What write queue length does an incoming req see
system.mem_ctrl.wrQLenPdf::57                       0                       # What write queue length does an incoming req see
system.mem_ctrl.wrQLenPdf::58                       0                       # What write queue length does an incoming req see
system.mem_ctrl.wrQLenPdf::59                       0                       # What write queue length does an incoming req see
system.mem_ctrl.wrQLenPdf::60                       0                       # What write queue length does an incoming req see
system.mem_ctrl.wrQLenPdf::61                       0                       # What write queue length does an incoming req see
system.mem_ctrl.wrQLenPdf::62                       0                       # What write queue length does an incoming req see
system.mem_ctrl.wrQLenPdf::63                       0                       # What write queue length does an incoming req see
system.mem_ctrl.bytesPerActivate::samples      4363469                       # Bytes accessed per row activation
system.mem_ctrl.bytesPerActivate::mean     636.595179                       # Bytes accessed per row activation
system.mem_ctrl.bytesPerActivate::gmean    390.110919                       # Bytes accessed per row activation
system.mem_ctrl.bytesPerActivate::stdev    433.046303                       # Bytes accessed per row activation
system.mem_ctrl.bytesPerActivate::0-127        986644     22.61%     22.61% # Bytes accessed per row activation
system.mem_ctrl.bytesPerActivate::128-255       552130     12.65%     35.26% # Bytes accessed per row activation
system.mem_ctrl.bytesPerActivate::256-383       112054      2.57%     37.83% # Bytes accessed per row activation
system.mem_ctrl.bytesPerActivate::384-511        78977      1.81%     39.64% # Bytes accessed per row activation
system.mem_ctrl.bytesPerActivate::512-639        74694      1.71%     41.35% # Bytes accessed per row activation
system.mem_ctrl.bytesPerActivate::640-767        91059      2.09%     43.44% # Bytes accessed per row activation
system.mem_ctrl.bytesPerActivate::768-895       195440      4.48%     47.92% # Bytes accessed per row activation
system.mem_ctrl.bytesPerActivate::896-1023       114344      2.62%     50.54% # Bytes accessed per row activation
system.mem_ctrl.bytesPerActivate::1024-1151      2158127     49.46%    100.00% # Bytes accessed per row activation
system.mem_ctrl.bytesPerActivate::total       4363469                       # Bytes accessed per row activation
system.mem_ctrl.rdPerTurnAround::samples         2049                       # Reads before turning the bus around for writes
system.mem_ctrl.rdPerTurnAround::mean    21118.482186                       # Reads before turning the bus around for writes
system.mem_ctrl.rdPerTurnAround::gmean    6378.292709                       # Reads before turning the bus around for writes
system.mem_ctrl.rdPerTurnAround::stdev   49907.761837                       # Reads before turning the bus around for writes
system.mem_ctrl.rdPerTurnAround::0-65535         1833     89.46%     89.46% # Reads before turning the bus around for writes
system.mem_ctrl.rdPerTurnAround::65536-131071          131      6.39%     95.85% # Reads before turning the bus around for writes
system.mem_ctrl.rdPerTurnAround::131072-196607           58      2.83%     98.68% # Reads before turning the bus around for writes
system.mem_ctrl.rdPerTurnAround::196608-262143           26      1.27%     99.95% # Reads before turning the bus around for writes
system.mem_ctrl.rdPerTurnAround::1.31072e+06-1.37626e+06            1      0.05%    100.00% # Reads before turning the bus around for writes
system.mem_ctrl.rdPerTurnAround::total           2049                       # Reads before turning the bus around for writes
system.mem_ctrl.wrPerTurnAround::samples         2049                       # Writes before turning the bus around for reads
system.mem_ctrl.wrPerTurnAround::mean       16.004392                       # Writes before turning the bus around for reads
system.mem_ctrl.wrPerTurnAround::gmean      16.004102                       # Writes before turning the bus around for reads
system.mem_ctrl.wrPerTurnAround::stdev       0.101166                       # Writes before turning the bus around for reads
system.mem_ctrl.wrPerTurnAround::16              2045     99.80%     99.80% # Writes before turning the bus around for reads
system.mem_ctrl.wrPerTurnAround::18                 3      0.15%     99.95% # Writes before turning the bus around for reads
system.mem_ctrl.wrPerTurnAround::19                 1      0.05%    100.00% # Writes before turning the bus around for reads
system.mem_ctrl.wrPerTurnAround::total           2049                       # Writes before turning the bus around for reads
system.mem_ctrl.bytesReadDRAM              2775664832                       # Total number of bytes read from DRAM
system.mem_ctrl.bytesReadWrQ                 40858752                       # Total number of bytes read from write queue
system.mem_ctrl.bytesWritten                  2098752                       # Total number of bytes written to DRAM
system.mem_ctrl.bytesReadSys                344719887                       # Total read bytes from the system interface side
system.mem_ctrl.bytesWrittenSys              25009457                       # Total written bytes from the system interface side
system.mem_ctrl.avgRdBW                       1182.43                       # Average DRAM read bandwidth in MiByte/s
system.mem_ctrl.avgWrBW                          0.89                       # Average achieved write bandwidth in MiByte/s
system.mem_ctrl.avgRdBWSys                     146.85                       # Average system read bandwidth in MiByte/s
system.mem_ctrl.avgWrBWSys                      10.65                       # Average system write bandwidth in MiByte/s
system.mem_ctrl.peakBW                       12800.00                       # Theoretical peak bandwidth in MiByte/s
system.mem_ctrl.busUtil                          9.24                       # Data bus utilization in percentage
system.mem_ctrl.busUtilRead                      9.24                       # Data bus utilization in percentage for reads
system.mem_ctrl.busUtilWrite                     0.01                       # Data bus utilization in percentage for writes
system.mem_ctrl.totGap                   2347431875000                       # Total gap between requests
system.mem_ctrl.avgGap                       49717.49                       # Average gap between requests
system.mem_ctrl.masterReadBytes::.cpu.inst    305758096                       # Per-master bytes read from memory
system.mem_ctrl.masterReadBytes::.cpu.data     34202005                       # Per-master bytes read from memory
system.mem_ctrl.masterWriteBytes::.cpu.data       245625                       # Per-master bytes write to memory
system.mem_ctrl.masterReadRate::.cpu.inst 130252165.878331705928                       # Per-master bytes read from memory rate (Bytes/sec)
system.mem_ctrl.masterReadRate::.cpu.data 14569966.541888495907                       # Per-master bytes read from memory rate (Bytes/sec)
system.mem_ctrl.masterWriteRate::.cpu.data 104635.620977523446                       # Per-master bytes write to memory rate (Bytes/sec)
system.mem_ctrl.masterReadAccesses::.cpu.inst     38219762                       # Per-master read serviced memory accesses
system.mem_ctrl.masterReadAccesses::.cpu.data      5788419                       # Per-master read serviced memory accesses
system.mem_ctrl.masterWriteAccesses::.cpu.data      3207233                       # Per-master write serviced memory accesses
system.mem_ctrl.masterReadTotalLat::.cpu.inst 821124671750                       # Per-master read total memory access latency
system.mem_ctrl.masterReadTotalLat::.cpu.data 133146999750                       # Per-master read total memory access latency
system.mem_ctrl.masterWriteTotalLat::.cpu.data 62179360115000                       # Per-master write total memory access latency
system.mem_ctrl.masterReadAvgLat::.cpu.inst     21484.30                       # Per-master read average memory access latency
system.mem_ctrl.masterReadAvgLat::.cpu.data     23002.31                       # Per-master read average memory access latency
system.mem_ctrl.masterWriteAvgLat::.cpu.data  19387228.84                       # Per-master write average memory access latency
system.mem_ctrl.pageHitRate                     89.95                       # Row buffer hit rate, read and write combined
system.mem_ctrl.rank1.actEnergy            5293310400                       # Energy for activate commands per rank (pJ)
system.mem_ctrl.rank1.preEnergy            2813461200                       # Energy for precharge commands per rank (pJ)
system.mem_ctrl.rank1.readEnergy          18221558460                       # Energy for read commands per rank (pJ)
system.mem_ctrl.rank1.writeEnergy            68669100                       # Energy for write commands per rank (pJ)
system.mem_ctrl.rank1.refreshEnergy      185304125760.000031                       # Energy for refresh commands per rank (pJ)
system.mem_ctrl.rank1.actBackEnergy      836037699990                       # Energy for active background per rank (pJ)
system.mem_ctrl.rank1.preBackEnergy      197382122400                       # Energy for precharge background per rank (pJ)
system.mem_ctrl.rank1.actPowerDownEnergy            0                       # Energy for active power-down per rank (pJ)
system.mem_ctrl.rank1.prePowerDownEnergy            0                       # Energy for precharge power-down per rank (pJ)
system.mem_ctrl.rank1.selfRefreshEnergy             0                       # Energy for self refresh per rank (pJ)
system.mem_ctrl.rank1.totalEnergy        1245120947310                       # Total energy per rank (pJ)
system.mem_ctrl.rank1.averagePower         530.418335                       # Core power per rank (mW)
system.mem_ctrl.rank1.totalIdleTime                 0                       # Total Idle time Per DRAM Rank
system.mem_ctrl.rank1.memoryStateTime::IDLE 504938425750                       # Time in different power states
system.mem_ctrl.rank1.memoryStateTime::REF  78385840000                       # Time in different power states
system.mem_ctrl.rank1.memoryStateTime::SREF            0                       # Time in different power states
system.mem_ctrl.rank1.memoryStateTime::PRE_PDN            0                       # Time in different power states
system.mem_ctrl.rank1.memoryStateTime::ACT 1764107686250                       # Time in different power states
system.mem_ctrl.rank1.memoryStateTime::ACT_PDN            0                       # Time in different power states
system.mem_ctrl.rank0.actEnergy           25861879680                       # Energy for activate commands per rank (pJ)
system.mem_ctrl.rank0.preEnergy           13745903655                       # Energy for precharge commands per rank (pJ)
system.mem_ctrl.rank0.readEnergy         291438549360                       # Energy for read commands per rank (pJ)
system.mem_ctrl.rank0.writeEnergy           102510360                       # Energy for write commands per rank (pJ)
system.mem_ctrl.rank0.refreshEnergy      185304125760.000031                       # Energy for refresh commands per rank (pJ)
system.mem_ctrl.rank0.actBackEnergy      1059067854600                       # Energy for active background per rank (pJ)
system.mem_ctrl.rank0.preBackEnergy        9567255360                       # Energy for precharge background per rank (pJ)
system.mem_ctrl.rank0.actPowerDownEnergy            0                       # Energy for active power-down per rank (pJ)
system.mem_ctrl.rank0.prePowerDownEnergy            0                       # Energy for precharge power-down per rank (pJ)
system.mem_ctrl.rank0.selfRefreshEnergy             0                       # Energy for self refresh per rank (pJ)
system.mem_ctrl.rank0.totalEnergy        1585088078775                       # Total energy per rank (pJ)
system.mem_ctrl.rank0.averagePower         675.243462                       # Core power per rank (mW)
system.mem_ctrl.rank0.totalIdleTime                 0                       # Total Idle time Per DRAM Rank
system.mem_ctrl.rank0.memoryStateTime::IDLE  14916159000                       # Time in different power states
system.mem_ctrl.rank0.memoryStateTime::REF  78385840000                       # Time in different power states
system.mem_ctrl.rank0.memoryStateTime::SREF            0                       # Time in different power states
system.mem_ctrl.rank0.memoryStateTime::PRE_PDN            0                       # Time in different power states
system.mem_ctrl.rank0.memoryStateTime::ACT 2254129953000                       # Time in different power states
system.mem_ctrl.rank0.memoryStateTime::ACT_PDN            0                       # Time in different power states
system.mem_ctrl.power_state.pwrStateResidencyTicks::UNDEFINED 2347431952000                       # Cumulative time (in ticks) in various power states
system.cache.blocked_cycles::no_mshrs               0                       # number of cycles access was blocked
system.cache.blocked_cycles::no_targets             0                       # number of cycles access was blocked
system.cache.blocked::no_mshrs                      0                       # number of cycles access was blocked
system.cache.blocked::no_targets                    0                       # number of cycles access was blocked
system.cache.avg_blocked_cycles::no_mshrs          nan                       # average number of cycles each access was blocked
system.cache.avg_blocked_cycles::no_targets          nan                       # average number of cycles each access was blocked
system.cache.replacements                           0                       # number of replacements
system.cache.power_state.pwrStateResidencyTicks::UNDEFINED 2347431952000                       # Cumulative time (in ticks) in various power states
system.cache.tags.tagsinuse                         0                       # Cycle average of tags in use
system.cache.tags.total_refs                        0                       # Total number of references to valid blocks.
system.cache.tags.sampled_refs                      0                       # Sample count of references to valid blocks.
system.cache.tags.avg_refs                        nan                       # Average number of references to valid blocks.
system.cache.tags.warmup_cycle                      0                       # Cycle when the warmup percentage was hit.
system.cache.tags.tag_accesses                      0                       # Number of tag accesses
system.cache.tags.data_accesses                     0                       # Number of data accesses
system.cache.tags.power_state.pwrStateResidencyTicks::UNDEFINED 2347431952000                       # Cumulative time (in ticks) in various power states
system.clk_domain.clock                          1000                       # Clock period in ticks
system.clk_domain.voltage_domain.voltage            1                       # Voltage in Volts
system.cachebus.snoops                              0                       # Total snoops (count)
system.cachebus.snoopTraffic                        0                       # Total snoop traffic (bytes)
system.cachebus.snoop_fanout::samples               0                       # Request fanout histogram
system.cachebus.snoop_fanout::mean                nan                       # Request fanout histogram
system.cachebus.snoop_fanout::stdev               nan                       # Request fanout histogram
system.cachebus.snoop_fanout::underflows            0                       # Request fanout histogram
system.cachebus.snoop_fanout::0                     0                       # Request fanout histogram
system.cachebus.snoop_fanout::overflows             0                       # Request fanout histogram
system.cachebus.snoop_fanout::min_value             0                       # Request fanout histogram
system.cachebus.snoop_fanout::max_value             0                       # Request fanout histogram
system.cachebus.snoop_fanout::total                 0                       # Request fanout histogram
system.cachebus.power_state.pwrStateResidencyTicks::UNDEFINED 2347431952000                       # Cumulative time (in ticks) in various power states
system.cpu.dtb.walker.power_state.pwrStateResidencyTicks::UNDEFINED 2347431952000                       # Cumulative time (in ticks) in various power states
system.cpu.interrupts.clk_domain.clock          16000                       # Clock period in ticks
system.cpu.itb.walker.power_state.pwrStateResidencyTicks::UNDEFINED 2347431952000                       # Cumulative time (in ticks) in various power states
system.cpu.power_state.numTransitions               1                       # Number of power state transitions
system.cpu.power_state.pwrStateResidencyTicks::ON 2347431952000                       # Cumulative time (in ticks) in various power states

---------- End Simulation Statistics   ----------
