
---------- Begin Simulation Statistics ----------
final_tick                               226957226000                       # Number of ticks from beginning of simulation (restored from checkpoints and never reset)
host_inst_rate                                 225026                       # Simulator instruction rate (inst/s)
host_mem_usage                                 732836                       # Number of bytes of host memory used
host_op_rate                                   399635                       # Simulator op (including micro ops) rate (op/s)
host_seconds                                    13.33                       # Real time elapsed on the host
host_tick_rate                            17023597189                       # Simulator tick rate (ticks/s)
sim_freq                                 1000000000000                       # Frequency of simulated ticks
sim_insts                                     3000000                       # Number of instructions simulated
sim_ops                                       5327884                       # Number of ops (including micro ops) simulated
sim_seconds                                  0.226957                       # Number of seconds simulated
sim_ticks                                226957226000                       # Number of ticks simulated
system.cachebus.snoop_filter.hit_multi_requests            0                       # Number of requests hitting in the snoop filter with multiple (>1) holders of the requested data.
system.cachebus.snoop_filter.hit_multi_snoops            0                       # Number of snoops hitting in the snoop filter with multiple (>1) holders of the requested data.
system.cachebus.snoop_filter.hit_single_requests            0                       # Number of requests hitting in the snoop filter with a single holder of the requested data.
system.cachebus.snoop_filter.hit_single_snoops            0                       # Number of snoops hitting in the snoop filter with a single holder of the requested data.
system.cachebus.snoop_filter.tot_requests            0                       # Total number of requests made to the snoop filter.
system.cachebus.snoop_filter.tot_snoops             0                       # Total number of snoops made to the snoop filter.
system.cpu.Branches                            571741                       # Number of branches fetched
system.cpu.committedInsts                     3000000                       # Number of instructions committed
system.cpu.committedOps                       5327884                       # Number of ops (including micro ops) committed
system.cpu.dtb.rdAccesses                      652188                       # TLB accesses on read requests
system.cpu.dtb.rdMisses                           136                       # TLB misses on read requests
system.cpu.dtb.wrAccesses                      459451                       # TLB accesses on write requests
system.cpu.dtb.wrMisses                           124                       # TLB misses on write requests
system.cpu.idle_fraction                            0                       # Percentage of idle cycles
system.cpu.itb.rdAccesses                           0                       # TLB accesses on read requests
system.cpu.itb.rdMisses                             0                       # TLB misses on read requests
system.cpu.itb.wrAccesses                     3982647                       # TLB accesses on write requests
system.cpu.itb.wrMisses                           252                       # TLB misses on write requests
system.cpu.not_idle_fraction                        1                       # Percentage of non-idle cycles
system.cpu.numCycles                        226957226                       # number of cpu cycles simulated
system.cpu.numWorkItemsCompleted                    0                       # number of work items this cpu completed
system.cpu.numWorkItemsStarted                      0                       # number of work items this cpu started
system.cpu.num_busy_cycles                  226957226                       # Number of busy cycles
system.cpu.num_cc_register_reads              2769570                       # number of times the CC registers were read
system.cpu.num_cc_register_writes             1764646                       # number of times the CC registers were written
system.cpu.num_conditional_control_insts       422933                       # number of instructions that are conditional controls
system.cpu.num_fp_alu_accesses                 276601                       # Number of float alu accesses
system.cpu.num_fp_insts                        276601                       # number of float instructions
system.cpu.num_fp_register_reads               508238                       # number of times the floating registers were read
system.cpu.num_fp_register_writes              238580                       # number of times the floating registers were written
system.cpu.num_func_calls                       88305                       # number of times a function call or return occured
system.cpu.num_idle_cycles                          0                       # Number of idle cycles
system.cpu.num_int_alu_accesses               5116244                       # Number of integer alu accesses
system.cpu.num_int_insts                      5116244                       # number of integer instructions
system.cpu.num_int_register_reads            10136769                       # number of times the integer registers were read
system.cpu.num_int_register_writes            4060214                       # number of times the integer registers were written
system.cpu.num_load_insts                      652020                       # Number of load instructions
system.cpu.num_mem_refs                       1111454                       # number of memory refs
system.cpu.num_store_insts                     459434                       # Number of store instructions
system.cpu.num_vec_alu_accesses                     0                       # Number of vector alu accesses
system.cpu.num_vec_insts                            0                       # number of vector instructions
system.cpu.num_vec_register_reads                   0                       # number of times the vector registers were read
system.cpu.num_vec_register_writes                  0                       # number of times the vector registers were written
system.cpu.op_class::No_OpClass                 11420      0.21%      0.21% # Class of executed instruction
system.cpu.op_class::IntAlu                   4010572     75.27%     75.49% # Class of executed instruction
system.cpu.op_class::IntMult                    17688      0.33%     75.82% # Class of executed instruction
system.cpu.op_class::IntDiv                       175      0.00%     75.82% # Class of executed instruction
system.cpu.op_class::FloatAdd                   12161      0.23%     76.05% # Class of executed instruction
system.cpu.op_class::FloatCmp                       0      0.00%     76.05% # Class of executed instruction
system.cpu.op_class::FloatCvt                       0      0.00%     76.05% # Class of executed instruction
system.cpu.op_class::FloatMult                      0      0.00%     76.05% # Class of executed instruction
system.cpu.op_class::FloatMultAcc                   0      0.00%     76.05% # Class of executed instruction
system.cpu.op_class::FloatDiv                       0      0.00%     76.05% # Class of executed instruction
system.cpu.op_class::FloatMisc                      0      0.00%     76.05% # Class of executed instruction
system.cpu.op_class::FloatSqrt                      0      0.00%     76.05% # Class of executed instruction
system.cpu.op_class::SimdAdd                      484      0.01%     76.06% # Class of executed instruction
system.cpu.op_class::SimdAddAcc                     0      0.00%     76.06% # Class of executed instruction
system.cpu.op_class::SimdAlu                    18676      0.35%     76.41% # Class of executed instruction
system.cpu.op_class::SimdCmp                      618      0.01%     76.42% # Class of executed instruction
system.cpu.op_class::SimdCvt                     6304      0.12%     76.54% # Class of executed instruction
system.cpu.op_class::SimdMisc                   24934      0.47%     77.01% # Class of executed instruction
system.cpu.op_class::SimdMult                       0      0.00%     77.01% # Class of executed instruction
system.cpu.op_class::SimdMultAcc                    0      0.00%     77.01% # Class of executed instruction
system.cpu.op_class::SimdShift                    141      0.00%     77.01% # Class of executed instruction
system.cpu.op_class::SimdShiftAcc                   0      0.00%     77.01% # Class of executed instruction
system.cpu.op_class::SimdDiv                        0      0.00%     77.01% # Class of executed instruction
system.cpu.op_class::SimdSqrt                       0      0.00%     77.01% # Class of executed instruction
system.cpu.op_class::SimdFloatAdd               33653      0.63%     77.64% # Class of executed instruction
system.cpu.op_class::SimdFloatAlu                   0      0.00%     77.64% # Class of executed instruction
system.cpu.op_class::SimdFloatCmp                 372      0.01%     77.65% # Class of executed instruction
system.cpu.op_class::SimdFloatCvt               24481      0.46%     78.11% # Class of executed instruction
system.cpu.op_class::SimdFloatDiv                3131      0.06%     78.17% # Class of executed instruction
system.cpu.op_class::SimdFloatMisc                  0      0.00%     78.17% # Class of executed instruction
system.cpu.op_class::SimdFloatMult              49569      0.93%     79.10% # Class of executed instruction
system.cpu.op_class::SimdFloatMultAcc               0      0.00%     79.10% # Class of executed instruction
system.cpu.op_class::SimdFloatSqrt               2094      0.04%     79.14% # Class of executed instruction
system.cpu.op_class::SimdReduceAdd                  0      0.00%     79.14% # Class of executed instruction
system.cpu.op_class::SimdReduceAlu                  0      0.00%     79.14% # Class of executed instruction
system.cpu.op_class::SimdReduceCmp                  0      0.00%     79.14% # Class of executed instruction
system.cpu.op_class::SimdFloatReduceAdd             0      0.00%     79.14% # Class of executed instruction
system.cpu.op_class::SimdFloatReduceCmp             0      0.00%     79.14% # Class of executed instruction
system.cpu.op_class::SimdAes                        0      0.00%     79.14% # Class of executed instruction
system.cpu.op_class::SimdAesMix                     0      0.00%     79.14% # Class of executed instruction
system.cpu.op_class::SimdSha1Hash                   0      0.00%     79.14% # Class of executed instruction
system.cpu.op_class::SimdSha1Hash2                  0      0.00%     79.14% # Class of executed instruction
system.cpu.op_class::SimdSha256Hash                 0      0.00%     79.14% # Class of executed instruction
system.cpu.op_class::SimdSha256Hash2                0      0.00%     79.14% # Class of executed instruction
system.cpu.op_class::SimdShaSigma2                  0      0.00%     79.14% # Class of executed instruction
system.cpu.op_class::SimdShaSigma3                  0      0.00%     79.14% # Class of executed instruction
system.cpu.op_class::SimdPredAlu                    0      0.00%     79.14% # Class of executed instruction
system.cpu.op_class::MemRead                   614575     11.53%     90.67% # Class of executed instruction
system.cpu.op_class::MemWrite                  441545      8.29%     98.96% # Class of executed instruction
system.cpu.op_class::FloatMemRead               37445      0.70%     99.66% # Class of executed instruction
system.cpu.op_class::FloatMemWrite              17889      0.34%    100.00% # Class of executed instruction
system.cpu.op_class::IprAccess                      0      0.00%    100.00% # Class of executed instruction
system.cpu.op_class::InstPrefetch                   0      0.00%    100.00% # Class of executed instruction
system.cpu.op_class::total                    5327927                       # Class of executed instruction
system.cpu.workload.numSyscalls                    48                       # Number of system calls
system.membus.snoop_filter.hit_multi_requests            0                       # Number of requests hitting in the snoop filter with multiple (>1) holders of the requested data.
system.membus.snoop_filter.hit_multi_snoops            0                       # Number of snoops hitting in the snoop filter with multiple (>1) holders of the requested data.
system.membus.snoop_filter.hit_single_requests            0                       # Number of requests hitting in the snoop filter with a single holder of the requested data.
system.membus.snoop_filter.hit_single_snoops            0                       # Number of snoops hitting in the snoop filter with a single holder of the requested data.
system.membus.snoop_filter.tot_requests          4340                       # Total number of requests made to the snoop filter.
system.membus.snoop_filter.tot_snoops               0                       # Total number of snoops made to the snoop filter.
system.membus.trans_dist::ReadReq             4243712                       # Transaction distribution
system.membus.trans_dist::ReadResp            4245907                       # Transaction distribution
system.membus.trans_dist::WriteReq             158926                       # Transaction distribution
system.membus.trans_dist::WriteResp            158926                       # Transaction distribution
system.membus.trans_dist::SoftPFReq              3052                       # Transaction distribution
system.membus.trans_dist::SoftPFResp             3052                       # Transaction distribution
system.membus.trans_dist::ReadExReq              2145                       # Transaction distribution
system.membus.trans_dist::ReadExResp             2145                       # Transaction distribution
system.membus.trans_dist::ReadSharedReq          2195                       # Transaction distribution
system.membus.pkt_count_system.cpu.icache_port::system.mem_ctrl.port      7965294                       # Packet count per connected master and slave (bytes)
system.membus.pkt_count_system.cpu.icache_port::total      7965294                       # Packet count per connected master and slave (bytes)
system.membus.pkt_count_system.memobj.mem_side::system.mem_ctrl.port       846086                       # Packet count per connected master and slave (bytes)
system.membus.pkt_count_system.memobj.mem_side::total       846086                       # Packet count per connected master and slave (bytes)
system.membus.pkt_count_system.cache.mem_side::system.mem_ctrl.port         8680                       # Packet count per connected master and slave (bytes)
system.membus.pkt_count_system.cache.mem_side::total         8680                       # Packet count per connected master and slave (bytes)
system.membus.pkt_count::total                8820060                       # Packet count per connected master and slave (bytes)
system.membus.pkt_size_system.cpu.icache_port::system.mem_ctrl.port     31861176                       # Cumulative packet size per connected master and slave (bytes)
system.membus.pkt_size_system.cpu.icache_port::total     31861176                       # Cumulative packet size per connected master and slave (bytes)
system.membus.pkt_size_system.memobj.mem_side::system.mem_ctrl.port      2804973                       # Cumulative packet size per connected master and slave (bytes)
system.membus.pkt_size_system.memobj.mem_side::total      2804973                       # Cumulative packet size per connected master and slave (bytes)
system.membus.pkt_size_system.cache.mem_side::system.mem_ctrl.port       277760                       # Cumulative packet size per connected master and slave (bytes)
system.membus.pkt_size_system.cache.mem_side::total       277760                       # Cumulative packet size per connected master and slave (bytes)
system.membus.pkt_size::total                34943909                       # Cumulative packet size per connected master and slave (bytes)
system.membus.snoops                                0                       # Total snoops (count)
system.membus.snoopTraffic                          0                       # Total snoop traffic (bytes)
system.membus.snoop_fanout::samples           4410030                       # Request fanout histogram
system.membus.snoop_fanout::mean                    0                       # Request fanout histogram
system.membus.snoop_fanout::stdev                   0                       # Request fanout histogram
system.membus.snoop_fanout::underflows              0      0.00%      0.00% # Request fanout histogram
system.membus.snoop_fanout::0                 4410030    100.00%    100.00% # Request fanout histogram
system.membus.snoop_fanout::1                       0      0.00%    100.00% # Request fanout histogram
system.membus.snoop_fanout::overflows               0      0.00%    100.00% # Request fanout histogram
system.membus.snoop_fanout::min_value               0                       # Request fanout histogram
system.membus.snoop_fanout::max_value               0                       # Request fanout histogram
system.membus.snoop_fanout::total             4410030                       # Request fanout histogram
system.membus.reqLayer2.occupancy          4568956000                       # Layer occupancy (ticks)
system.membus.reqLayer2.utilization               2.0                       # Layer utilization (%)
system.membus.respLayer1.occupancy          774707000                       # Layer occupancy (ticks)
system.membus.respLayer1.utilization              0.3                       # Layer utilization (%)
system.membus.respLayer0.occupancy         9038442500                       # Layer occupancy (ticks)
system.membus.respLayer0.utilization              4.0                       # Layer utilization (%)
system.membus.respLayer2.occupancy           23714250                       # Layer occupancy (ticks)
system.membus.respLayer2.utilization              0.0                       # Layer utilization (%)
system.membus.power_state.pwrStateResidencyTicks::UNDEFINED 226957226000                       # Cumulative time (in ticks) in various power states
system.mem_ctrl.bytes_read::.cpu.inst        31861176                       # Number of bytes read from this memory
system.mem_ctrl.bytes_read::.cpu.data         1971971                       # Number of bytes read from this memory
system.mem_ctrl.bytes_read::total            33833147                       # Number of bytes read from this memory
system.mem_ctrl.bytes_inst_read::.cpu.inst     31861176                       # Number of instructions bytes read from this memory
system.mem_ctrl.bytes_inst_read::total       31861176                       # Number of instructions bytes read from this memory
system.mem_ctrl.bytes_written::.cpu.data      1110762                       # Number of bytes written to this memory
system.mem_ctrl.bytes_written::total          1110762                       # Number of bytes written to this memory
system.mem_ctrl.num_reads::.cpu.inst          3982647                       # Number of read requests responded to by this memory
system.mem_ctrl.num_reads::.cpu.data           268457                       # Number of read requests responded to by this memory
system.mem_ctrl.num_reads::total              4251104                       # Number of read requests responded to by this memory
system.mem_ctrl.num_writes::.cpu.data          158926                       # Number of write requests responded to by this memory
system.mem_ctrl.num_writes::total              158926                       # Number of write requests responded to by this memory
system.mem_ctrl.bw_read::.cpu.inst          140384056                       # Total read bandwidth from this memory (bytes/s)
system.mem_ctrl.bw_read::.cpu.data            8688734                       # Total read bandwidth from this memory (bytes/s)
system.mem_ctrl.bw_read::total              149072790                       # Total read bandwidth from this memory (bytes/s)
system.mem_ctrl.bw_inst_read::.cpu.inst     140384056                       # Instruction read bandwidth from this memory (bytes/s)
system.mem_ctrl.bw_inst_read::total         140384056                       # Instruction read bandwidth from this memory (bytes/s)
system.mem_ctrl.bw_write::.cpu.data           4894147                       # Write bandwidth from this memory (bytes/s)
system.mem_ctrl.bw_write::total               4894147                       # Write bandwidth from this memory (bytes/s)
system.mem_ctrl.bw_total::.cpu.inst         140384056                       # Total bandwidth to/from this memory (bytes/s)
system.mem_ctrl.bw_total::.cpu.data          13582881                       # Total bandwidth to/from this memory (bytes/s)
system.mem_ctrl.bw_total::total             153966937                       # Total bandwidth to/from this memory (bytes/s)
system.mem_ctrl.avgPriority_.cpu.inst::samples   3982647.00                       # Average QoS priority value for accepted requests
system.mem_ctrl.avgPriority_.cpu.data::samples    244744.00                       # Average QoS priority value for accepted requests
system.mem_ctrl.priorityMinLatency       0.000000018750                       # per QoS priority minimum request to response latency (s)
system.mem_ctrl.priorityMaxLatency       0.012505269750                       # per QoS priority maximum request to response latency (s)
system.mem_ctrl.numReadWriteTurnArounds           464                       # Number of turnarounds from READ to WRITE
system.mem_ctrl.numWriteReadTurnArounds           464                       # Number of turnarounds from WRITE to READ
system.mem_ctrl.numStayReadState              8656572                       # Number of times bus staying in READ state
system.mem_ctrl.numStayWriteState                6976                       # Number of times bus staying in WRITE state
system.mem_ctrl.readReqs                      4251104                       # Number of read requests accepted
system.mem_ctrl.writeReqs                      158926                       # Number of write requests accepted
system.mem_ctrl.readBursts                    4251104                       # Number of DRAM read bursts, including those serviced by the write queue
system.mem_ctrl.writeBursts                    158926                       # Number of DRAM write bursts, including those merged in the write queue
system.mem_ctrl.servicedByWrQ                   31161                       # Number of DRAM read bursts serviced by the write queue
system.mem_ctrl.mergedWrBursts                 151478                       # Number of DRAM write bursts merged with an existing one
system.mem_ctrl.neitherReadNorWriteReqs             0                       # Number of requests that are neither read nor write
system.mem_ctrl.perBankRdBursts::0             146112                       # Per bank write bursts
system.mem_ctrl.perBankRdBursts::1             113840                       # Per bank write bursts
system.mem_ctrl.perBankRdBursts::2             148743                       # Per bank write bursts
system.mem_ctrl.perBankRdBursts::3             163594                       # Per bank write bursts
system.mem_ctrl.perBankRdBursts::4             912294                       # Per bank write bursts
system.mem_ctrl.perBankRdBursts::5             182234                       # Per bank write bursts
system.mem_ctrl.perBankRdBursts::6             600973                       # Per bank write bursts
system.mem_ctrl.perBankRdBursts::7             328253                       # Per bank write bursts
system.mem_ctrl.perBankRdBursts::8             357349                       # Per bank write bursts
system.mem_ctrl.perBankRdBursts::9             198184                       # Per bank write bursts
system.mem_ctrl.perBankRdBursts::10             60440                       # Per bank write bursts
system.mem_ctrl.perBankRdBursts::11             47284                       # Per bank write bursts
system.mem_ctrl.perBankRdBursts::12            513947                       # Per bank write bursts
system.mem_ctrl.perBankRdBursts::13            216969                       # Per bank write bursts
system.mem_ctrl.perBankRdBursts::14            106700                       # Per bank write bursts
system.mem_ctrl.perBankRdBursts::15            123027                       # Per bank write bursts
system.mem_ctrl.perBankWrBursts::0                240                       # Per bank write bursts
system.mem_ctrl.perBankWrBursts::1                735                       # Per bank write bursts
system.mem_ctrl.perBankWrBursts::2                212                       # Per bank write bursts
system.mem_ctrl.perBankWrBursts::3                733                       # Per bank write bursts
system.mem_ctrl.perBankWrBursts::4               1860                       # Per bank write bursts
system.mem_ctrl.perBankWrBursts::5                462                       # Per bank write bursts
system.mem_ctrl.perBankWrBursts::6                 35                       # Per bank write bursts
system.mem_ctrl.perBankWrBursts::7                145                       # Per bank write bursts
system.mem_ctrl.perBankWrBursts::8                590                       # Per bank write bursts
system.mem_ctrl.perBankWrBursts::9                 66                       # Per bank write bursts
system.mem_ctrl.perBankWrBursts::10                 8                       # Per bank write bursts
system.mem_ctrl.perBankWrBursts::11              1150                       # Per bank write bursts
system.mem_ctrl.perBankWrBursts::12               834                       # Per bank write bursts
system.mem_ctrl.perBankWrBursts::13                14                       # Per bank write bursts
system.mem_ctrl.perBankWrBursts::14                 2                       # Per bank write bursts
system.mem_ctrl.perBankWrBursts::15               344                       # Per bank write bursts
system.mem_ctrl.avgRdQLen                        1.00                       # Average read queue length when enqueuing
system.mem_ctrl.avgWrQLen                       21.60                       # Average write queue length when enqueuing
system.mem_ctrl.totQLat                   13428729000                       # Total ticks spent queuing
system.mem_ctrl.totBusLat                 21099715000                       # Total ticks spent in databus transfers
system.mem_ctrl.totMemAccLat              92552660250                       # Total ticks spent from burst creation until serviced by the DRAM
system.mem_ctrl.avgQLat                       3182.21                       # Average queueing delay per DRAM burst
system.mem_ctrl.avgBusLat                     5000.00                       # Average bus latency per DRAM burst
system.mem_ctrl.avgMemAccLat                 21932.21                       # Average memory access latency per DRAM burst
system.mem_ctrl.numRdRetry                          0                       # Number of times read queue was full causing retry
system.mem_ctrl.numWrRetry                          0                       # Number of times write queue was full causing retry
system.mem_ctrl.readRowHits                   3838185                       # Number of row buffer hits during reads
system.mem_ctrl.writeRowHits                     6623                       # Number of row buffer hits during writes
system.mem_ctrl.readRowHitRate                  90.95                       # Row buffer hit rate for reads
system.mem_ctrl.writeRowHitRate                 88.92                       # Row buffer hit rate for writes
system.mem_ctrl.readPktSize::0                  28518                       # Read request sizes (log2)
system.mem_ctrl.readPktSize::1                   1418                       # Read request sizes (log2)
system.mem_ctrl.readPktSize::2                  52633                       # Read request sizes (log2)
system.mem_ctrl.readPktSize::3                4164195                       # Read request sizes (log2)
system.mem_ctrl.readPktSize::4                      0                       # Read request sizes (log2)
system.mem_ctrl.readPktSize::5                      0                       # Read request sizes (log2)
system.mem_ctrl.readPktSize::6                   4340                       # Read request sizes (log2)
system.mem_ctrl.writePktSize::0                 10264                       # Write request sizes (log2)
system.mem_ctrl.writePktSize::1                   128                       # Write request sizes (log2)
system.mem_ctrl.writePktSize::2                 22002                       # Write request sizes (log2)
system.mem_ctrl.writePktSize::3                126532                       # Write request sizes (log2)
system.mem_ctrl.writePktSize::4                     0                       # Write request sizes (log2)
system.mem_ctrl.writePktSize::5                     0                       # Write request sizes (log2)
system.mem_ctrl.writePktSize::6                     0                       # Write request sizes (log2)
system.mem_ctrl.rdQLenPdf::0                  4218707                       # What read queue length does an incoming req see
system.mem_ctrl.rdQLenPdf::1                     1236                       # What read queue length does an incoming req see
system.mem_ctrl.rdQLenPdf::2                        0                       # What read queue length does an incoming req see
system.mem_ctrl.rdQLenPdf::3                        0                       # What read queue length does an incoming req see
system.mem_ctrl.rdQLenPdf::4                        0                       # What read queue length does an incoming req see
system.mem_ctrl.rdQLenPdf::5                        0                       # What read queue length does an incoming req see
system.mem_ctrl.rdQLenPdf::6                        0                       # What read queue length does an incoming req see
system.mem_ctrl.rdQLenPdf::7                        0                       # What read queue length does an incoming req see
system.mem_ctrl.rdQLenPdf::8                        0                       # What read queue length does an incoming req see
system.mem_ctrl.rdQLenPdf::9                        0                       # What read queue length does an incoming req see
system.mem_ctrl.rdQLenPdf::10                       0                       # What read queue length does an incoming req see
system.mem_ctrl.rdQLenPdf::11                       0                       # What read queue length does an incoming req see
system.mem_ctrl.rdQLenPdf::12                       0                       # What read queue length does an incoming req see
system.mem_ctrl.rdQLenPdf::13                       0                       # What read queue length does an incoming req see
system.mem_ctrl.rdQLenPdf::14                       0                       # What read queue length does an incoming req see
system.mem_ctrl.rdQLenPdf::15                       0                       # What read queue length does an incoming req see
system.mem_ctrl.rdQLenPdf::16                       0                       # What read queue length does an incoming req see
system.mem_ctrl.rdQLenPdf::17                       0                       # What read queue length does an incoming req see
system.mem_ctrl.rdQLenPdf::18                       0                       # What read queue length does an incoming req see
system.mem_ctrl.rdQLenPdf::19                       0                       # What read queue length does an incoming req see
system.mem_ctrl.rdQLenPdf::20                       0                       # What read queue length does an incoming req see
system.mem_ctrl.rdQLenPdf::21                       0                       # What read queue length does an incoming req see
system.mem_ctrl.rdQLenPdf::22                       0                       # What read queue length does an incoming req see
system.mem_ctrl.rdQLenPdf::23                       0                       # What read queue length does an incoming req see
system.mem_ctrl.rdQLenPdf::24                       0                       # What read queue length does an incoming req see
system.mem_ctrl.rdQLenPdf::25                       0                       # What read queue length does an incoming req see
system.mem_ctrl.rdQLenPdf::26                       0                       # What read queue length does an incoming req see
system.mem_ctrl.rdQLenPdf::27                       0                       # What read queue length does an incoming req see
system.mem_ctrl.rdQLenPdf::28                       0                       # What read queue length does an incoming req see
system.mem_ctrl.rdQLenPdf::29                       0                       # What read queue length does an incoming req see
system.mem_ctrl.rdQLenPdf::30                       0                       # What read queue length does an incoming req see
system.mem_ctrl.rdQLenPdf::31                       0                       # What read queue length does an incoming req see
system.mem_ctrl.wrQLenPdf::0                        1                       # What write queue length does an incoming req see
system.mem_ctrl.wrQLenPdf::1                        1                       # What write queue length does an incoming req see
system.mem_ctrl.wrQLenPdf::2                        1                       # What write queue length does an incoming req see
system.mem_ctrl.wrQLenPdf::3                        1                       # What write queue length does an incoming req see
system.mem_ctrl.wrQLenPdf::4                        1                       # What write queue length does an incoming req see
system.mem_ctrl.wrQLenPdf::5                        1                       # What write queue length does an incoming req see
system.mem_ctrl.wrQLenPdf::6                        1                       # What write queue length does an incoming req see
system.mem_ctrl.wrQLenPdf::7                        1                       # What write queue length does an incoming req see
system.mem_ctrl.wrQLenPdf::8                        1                       # What write queue length does an incoming req see
system.mem_ctrl.wrQLenPdf::9                        1                       # What write queue length does an incoming req see
system.mem_ctrl.wrQLenPdf::10                       1                       # What write queue length does an incoming req see
system.mem_ctrl.wrQLenPdf::11                       1                       # What write queue length does an incoming req see
system.mem_ctrl.wrQLenPdf::12                       1                       # What write queue length does an incoming req see
system.mem_ctrl.wrQLenPdf::13                       1                       # What write queue length does an incoming req see
system.mem_ctrl.wrQLenPdf::14                       1                       # What write queue length does an incoming req see
system.mem_ctrl.wrQLenPdf::15                       4                       # What write queue length does an incoming req see
system.mem_ctrl.wrQLenPdf::16                       4                       # What write queue length does an incoming req see
system.mem_ctrl.wrQLenPdf::17                     465                       # What write queue length does an incoming req see
system.mem_ctrl.wrQLenPdf::18                     464                       # What write queue length does an incoming req see
system.mem_ctrl.wrQLenPdf::19                     464                       # What write queue length does an incoming req see
system.mem_ctrl.wrQLenPdf::20                     464                       # What write queue length does an incoming req see
system.mem_ctrl.wrQLenPdf::21                     464                       # What write queue length does an incoming req see
system.mem_ctrl.wrQLenPdf::22                     464                       # What write queue length does an incoming req see
system.mem_ctrl.wrQLenPdf::23                     464                       # What write queue length does an incoming req see
system.mem_ctrl.wrQLenPdf::24                     464                       # What write queue length does an incoming req see
system.mem_ctrl.wrQLenPdf::25                     464                       # What write queue length does an incoming req see
system.mem_ctrl.wrQLenPdf::26                     464                       # What write queue length does an incoming req see
system.mem_ctrl.wrQLenPdf::27                     464                       # What write queue length does an incoming req see
system.mem_ctrl.wrQLenPdf::28                     464                       # What write queue length does an incoming req see
system.mem_ctrl.wrQLenPdf::29                     464                       # What write queue length does an incoming req see
system.mem_ctrl.wrQLenPdf::30                     464                       # What write queue length does an incoming req see
system.mem_ctrl.wrQLenPdf::31                     464                       # What write queue length does an incoming req see
system.mem_ctrl.wrQLenPdf::32                     464                       # What write queue length does an incoming req see
system.mem_ctrl.wrQLenPdf::33                       0                       # What write queue length does an incoming req see
system.mem_ctrl.wrQLenPdf::34                       0                       # What write queue length does an incoming req see
system.mem_ctrl.wrQLenPdf::35                       0                       # What write queue length does an incoming req see
system.mem_ctrl.wrQLenPdf::36                       0                       # What write queue length does an incoming req see
system.mem_ctrl.wrQLenPdf::37                       0                       # What write queue length does an incoming req see
system.mem_ctrl.wrQLenPdf::38                       0                       # What write queue length does an incoming req see
system.mem_ctrl.wrQLenPdf::39                       0                       # What write queue length does an incoming req see
system.mem_ctrl.wrQLenPdf::40                       0                       # What write queue length does an incoming req see
system.mem_ctrl.wrQLenPdf::41                       0                       # What write queue length does an incoming req see
system.mem_ctrl.wrQLenPdf::42                       0                       # What write queue length does an incoming req see
system.mem_ctrl.wrQLenPdf::43                       0                       # What write queue length does an incoming req see
system.mem_ctrl.wrQLenPdf::44                       0                       # What write queue length does an incoming req see
system.mem_ctrl.wrQLenPdf::45                       0                       # What write queue length does an incoming req see
system.mem_ctrl.wrQLenPdf::46                       0                       # What write queue length does an incoming req see
system.mem_ctrl.wrQLenPdf::47                       0                       # What write queue length does an incoming req see
system.mem_ctrl.wrQLenPdf::48                       0                       # What write queue length does an incoming req see
system.mem_ctrl.wrQLenPdf::49                       0                       # What write queue length does an incoming req see
system.mem_ctrl.wrQLenPdf::50                       0                       # What write queue length does an incoming req see
system.mem_ctrl.wrQLenPdf::51                       0                       # What write queue length does an incoming req see
system.mem_ctrl.wrQLenPdf::52                       0                       # What write queue length does an incoming req see
system.mem_ctrl.wrQLenPdf::53                       0                       # What write queue length does an incoming req see
system.mem_ctrl.wrQLenPdf::54                       0                       # What write queue length does an incoming req see
system.mem_ctrl.wrQLenPdf::55                       0                       # What write queue length does an incoming req see
system.mem_ctrl.wrQLenPdf::56                       0                       # What write queue length does an incoming req see
system.mem_ctrl.wrQLenPdf::57                       0                       # What write queue length does an incoming req see
system.mem_ctrl.wrQLenPdf::58                       0                       # What write queue length does an incoming req see
system.mem_ctrl.wrQLenPdf::59                       0                       # What write queue length does an incoming req see
system.mem_ctrl.wrQLenPdf::60                       0                       # What write queue length does an incoming req see
system.mem_ctrl.wrQLenPdf::61                       0                       # What write queue length does an incoming req see
system.mem_ctrl.wrQLenPdf::62                       0                       # What write queue length does an incoming req see
system.mem_ctrl.wrQLenPdf::63                       0                       # What write queue length does an incoming req see
system.mem_ctrl.bytesPerActivate::samples       382562                       # Bytes accessed per row activation
system.mem_ctrl.bytesPerActivate::mean     707.207679                       # Bytes accessed per row activation
system.mem_ctrl.bytesPerActivate::gmean    497.389789                       # Bytes accessed per row activation
system.mem_ctrl.bytesPerActivate::stdev    397.629586                       # Bytes accessed per row activation
system.mem_ctrl.bytesPerActivate::0-127         56729     14.83%     14.83% # Bytes accessed per row activation
system.mem_ctrl.bytesPerActivate::128-255        32220      8.42%     23.25% # Bytes accessed per row activation
system.mem_ctrl.bytesPerActivate::256-383        21563      5.64%     28.89% # Bytes accessed per row activation
system.mem_ctrl.bytesPerActivate::384-511        14714      3.85%     32.73% # Bytes accessed per row activation
system.mem_ctrl.bytesPerActivate::512-639        12025      3.14%     35.88% # Bytes accessed per row activation
system.mem_ctrl.bytesPerActivate::640-767        10783      2.82%     38.70% # Bytes accessed per row activation
system.mem_ctrl.bytesPerActivate::768-895        14834      3.88%     42.57% # Bytes accessed per row activation
system.mem_ctrl.bytesPerActivate::896-1023         8284      2.17%     44.74% # Bytes accessed per row activation
system.mem_ctrl.bytesPerActivate::1024-1151       211410     55.26%    100.00% # Bytes accessed per row activation
system.mem_ctrl.bytesPerActivate::total        382562                       # Bytes accessed per row activation
system.mem_ctrl.rdPerTurnAround::samples          464                       # Reads before turning the bus around for writes
system.mem_ctrl.rdPerTurnAround::mean     3559.773707                       # Reads before turning the bus around for writes
system.mem_ctrl.rdPerTurnAround::gmean    1750.455813                       # Reads before turning the bus around for writes
system.mem_ctrl.rdPerTurnAround::stdev    5618.960496                       # Reads before turning the bus around for writes
system.mem_ctrl.rdPerTurnAround::0-2047           291     62.72%     62.72% # Reads before turning the bus around for writes
system.mem_ctrl.rdPerTurnAround::2048-4095           72     15.52%     78.23% # Reads before turning the bus around for writes
system.mem_ctrl.rdPerTurnAround::4096-6143           25      5.39%     83.62% # Reads before turning the bus around for writes
system.mem_ctrl.rdPerTurnAround::6144-8191           17      3.66%     87.28% # Reads before turning the bus around for writes
system.mem_ctrl.rdPerTurnAround::8192-10239           18      3.88%     91.16% # Reads before turning the bus around for writes
system.mem_ctrl.rdPerTurnAround::10240-12287            8      1.72%     92.89% # Reads before turning the bus around for writes
system.mem_ctrl.rdPerTurnAround::12288-14335           11      2.37%     95.26% # Reads before turning the bus around for writes
system.mem_ctrl.rdPerTurnAround::14336-16383            4      0.86%     96.12% # Reads before turning the bus around for writes
system.mem_ctrl.rdPerTurnAround::16384-18431            4      0.86%     96.98% # Reads before turning the bus around for writes
system.mem_ctrl.rdPerTurnAround::18432-20479            2      0.43%     97.41% # Reads before turning the bus around for writes
system.mem_ctrl.rdPerTurnAround::20480-22527            3      0.65%     98.06% # Reads before turning the bus around for writes
system.mem_ctrl.rdPerTurnAround::24576-26623            3      0.65%     98.71% # Reads before turning the bus around for writes
system.mem_ctrl.rdPerTurnAround::26624-28671            2      0.43%     99.14% # Reads before turning the bus around for writes
system.mem_ctrl.rdPerTurnAround::28672-30719            2      0.43%     99.57% # Reads before turning the bus around for writes
system.mem_ctrl.rdPerTurnAround::40960-43007            1      0.22%     99.78% # Reads before turning the bus around for writes
system.mem_ctrl.rdPerTurnAround::47104-49151            1      0.22%    100.00% # Reads before turning the bus around for writes
system.mem_ctrl.rdPerTurnAround::total            464                       # Reads before turning the bus around for writes
system.mem_ctrl.wrPerTurnAround::samples          464                       # Writes before turning the bus around for reads
system.mem_ctrl.wrPerTurnAround::mean       16.012931                       # Writes before turning the bus around for reads
system.mem_ctrl.wrPerTurnAround::gmean      16.012189                       # Writes before turning the bus around for reads
system.mem_ctrl.wrPerTurnAround::stdev       0.160469                       # Writes before turning the bus around for reads
system.mem_ctrl.wrPerTurnAround::16               461     99.35%     99.35% # Writes before turning the bus around for reads
system.mem_ctrl.wrPerTurnAround::18                 3      0.65%    100.00% # Writes before turning the bus around for reads
system.mem_ctrl.wrPerTurnAround::total            464                       # Writes before turning the bus around for reads
system.mem_ctrl.bytesReadDRAM               270076352                       # Total number of bytes read from DRAM
system.mem_ctrl.bytesReadWrQ                  1994304                       # Total number of bytes read from write queue
system.mem_ctrl.bytesWritten                   475520                       # Total number of bytes written to DRAM
system.mem_ctrl.bytesReadSys                 33833147                       # Total read bytes from the system interface side
system.mem_ctrl.bytesWrittenSys               1110762                       # Total written bytes from the system interface side
system.mem_ctrl.avgRdBW                       1189.99                       # Average DRAM read bandwidth in MiByte/s
system.mem_ctrl.avgWrBW                          2.10                       # Average achieved write bandwidth in MiByte/s
system.mem_ctrl.avgRdBWSys                     149.07                       # Average system read bandwidth in MiByte/s
system.mem_ctrl.avgWrBWSys                       4.89                       # Average system write bandwidth in MiByte/s
system.mem_ctrl.peakBW                       12800.00                       # Theoretical peak bandwidth in MiByte/s
system.mem_ctrl.busUtil                          9.31                       # Data bus utilization in percentage
system.mem_ctrl.busUtilRead                      9.30                       # Data bus utilization in percentage for reads
system.mem_ctrl.busUtilWrite                     0.02                       # Data bus utilization in percentage for writes
system.mem_ctrl.totGap                   226957100000                       # Total gap between requests
system.mem_ctrl.avgGap                       51463.84                       # Average gap between requests
system.mem_ctrl.masterReadBytes::.cpu.inst     31861176                       # Per-master bytes read from memory
system.mem_ctrl.masterReadBytes::.cpu.data      1787245                       # Per-master bytes read from memory
system.mem_ctrl.masterWriteBytes::.cpu.data        55301                       # Per-master bytes write to memory
system.mem_ctrl.masterReadRate::.cpu.inst 140384056.333152383566                       # Per-master bytes read from memory rate (Bytes/sec)
system.mem_ctrl.masterReadRate::.cpu.data 7874809.855139839463                       # Per-master bytes read from memory rate (Bytes/sec)
system.mem_ctrl.masterWriteRate::.cpu.data 243662.653860600141                       # Per-master bytes write to memory rate (Bytes/sec)
system.mem_ctrl.masterReadAccesses::.cpu.inst      3982647                       # Per-master read serviced memory accesses
system.mem_ctrl.masterReadAccesses::.cpu.data       268457                       # Per-master read serviced memory accesses
system.mem_ctrl.masterWriteAccesses::.cpu.data       158926                       # Per-master write serviced memory accesses
system.mem_ctrl.masterReadTotalLat::.cpu.inst  86050031500                       # Per-master read total memory access latency
system.mem_ctrl.masterReadTotalLat::.cpu.data   6502628750                       # Per-master read total memory access latency
system.mem_ctrl.masterWriteTotalLat::.cpu.data 2433040869000                       # Per-master write total memory access latency
system.mem_ctrl.masterReadAvgLat::.cpu.inst     21606.24                       # Per-master read average memory access latency
system.mem_ctrl.masterReadAvgLat::.cpu.data     24222.24                       # Per-master read average memory access latency
system.mem_ctrl.masterWriteAvgLat::.cpu.data  15309268.90                       # Per-master write average memory access latency
system.mem_ctrl.pageHitRate                     90.95                       # Row buffer hit rate, read and write combined
system.mem_ctrl.rank1.actEnergy            1080060660                       # Energy for activate commands per rank (pJ)
system.mem_ctrl.rank1.preEnergy             574065855                       # Energy for precharge commands per rank (pJ)
system.mem_ctrl.rank1.readEnergy          11594646000                       # Energy for read commands per rank (pJ)
system.mem_ctrl.rank1.writeEnergy            15701760                       # Energy for write commands per rank (pJ)
system.mem_ctrl.rank1.refreshEnergy      17915526720.000004                       # Energy for refresh commands per rank (pJ)
system.mem_ctrl.rank1.actBackEnergy       68367062550                       # Energy for active background per rank (pJ)
system.mem_ctrl.rank1.preBackEnergy       29579311680                       # Energy for precharge background per rank (pJ)
system.mem_ctrl.rank1.actPowerDownEnergy            0                       # Energy for active power-down per rank (pJ)
system.mem_ctrl.rank1.prePowerDownEnergy            0                       # Energy for precharge power-down per rank (pJ)
system.mem_ctrl.rank1.selfRefreshEnergy             0                       # Energy for self refresh per rank (pJ)
system.mem_ctrl.rank1.totalEnergy        129126375225                       # Total energy per rank (pJ)
system.mem_ctrl.rank1.averagePower         568.945865                       # Core power per rank (mW)
system.mem_ctrl.rank1.totalIdleTime                 0                       # Total Idle time Per DRAM Rank
system.mem_ctrl.rank1.memoryStateTime::IDLE  75648494500                       # Time in different power states
system.mem_ctrl.rank1.memoryStateTime::REF   7578480000                       # Time in different power states
system.mem_ctrl.rank1.memoryStateTime::SREF            0                       # Time in different power states
system.mem_ctrl.rank1.memoryStateTime::PRE_PDN            0                       # Time in different power states
system.mem_ctrl.rank1.memoryStateTime::ACT 143730251500                       # Time in different power states
system.mem_ctrl.rank1.memoryStateTime::ACT_PDN            0                       # Time in different power states
system.mem_ctrl.rank0.actEnergy            1651453440                       # Energy for activate commands per rank (pJ)
system.mem_ctrl.rank0.preEnergy             877756935                       # Energy for precharge commands per rank (pJ)
system.mem_ctrl.rank0.readEnergy          18535747020                       # Energy for read commands per rank (pJ)
system.mem_ctrl.rank0.writeEnergy            23082840                       # Energy for write commands per rank (pJ)
system.mem_ctrl.rank0.refreshEnergy      17915526720.000004                       # Energy for refresh commands per rank (pJ)
system.mem_ctrl.rank0.actBackEnergy       84449740230                       # Energy for active background per rank (pJ)
system.mem_ctrl.rank0.preBackEnergy       16036004160                       # Energy for precharge background per rank (pJ)
system.mem_ctrl.rank0.actPowerDownEnergy            0                       # Energy for active power-down per rank (pJ)
system.mem_ctrl.rank0.prePowerDownEnergy            0                       # Energy for precharge power-down per rank (pJ)
system.mem_ctrl.rank0.selfRefreshEnergy             0                       # Energy for self refresh per rank (pJ)
system.mem_ctrl.rank0.totalEnergy        139489311345                       # Total energy per rank (pJ)
system.mem_ctrl.rank0.averagePower         614.606170                       # Core power per rank (mW)
system.mem_ctrl.rank0.totalIdleTime                 0                       # Total Idle time Per DRAM Rank
system.mem_ctrl.rank0.memoryStateTime::IDLE  39831072000                       # Time in different power states
system.mem_ctrl.rank0.memoryStateTime::REF   7578480000                       # Time in different power states
system.mem_ctrl.rank0.memoryStateTime::SREF            0                       # Time in different power states
system.mem_ctrl.rank0.memoryStateTime::PRE_PDN            0                       # Time in different power states
system.mem_ctrl.rank0.memoryStateTime::ACT 179547674000                       # Time in different power states
system.mem_ctrl.rank0.memoryStateTime::ACT_PDN            0                       # Time in different power states
system.mem_ctrl.power_state.pwrStateResidencyTicks::UNDEFINED 226957226000                       # Cumulative time (in ticks) in various power states
system.cache.demand_hits::.cpu.data            678628                       # number of demand (read+write) hits
system.cache.demand_hits::total                678628                       # number of demand (read+write) hits
system.cache.overall_hits::.cpu.data           684213                       # number of overall hits
system.cache.overall_hits::total               684213                       # number of overall hits
system.cache.demand_misses::.cpu.data            3144                       # number of demand (read+write) misses
system.cache.demand_misses::total                3144                       # number of demand (read+write) misses
system.cache.overall_misses::.cpu.data           4340                       # number of overall misses
system.cache.overall_misses::total               4340                       # number of overall misses
system.cache.demand_miss_latency::.cpu.data    212295000                       # number of demand (read+write) miss cycles
system.cache.demand_miss_latency::total     212295000                       # number of demand (read+write) miss cycles
system.cache.overall_miss_latency::.cpu.data    212295000                       # number of overall miss cycles
system.cache.overall_miss_latency::total    212295000                       # number of overall miss cycles
system.cache.demand_accesses::.cpu.data        681772                       # number of demand (read+write) accesses
system.cache.demand_accesses::total            681772                       # number of demand (read+write) accesses
system.cache.overall_accesses::.cpu.data       688553                       # number of overall (read+write) accesses
system.cache.overall_accesses::total           688553                       # number of overall (read+write) accesses
system.cache.demand_miss_rate::.cpu.data     0.004612                       # miss rate for demand accesses
system.cache.demand_miss_rate::total         0.004612                       # miss rate for demand accesses
system.cache.overall_miss_rate::.cpu.data     0.006303                       # miss rate for overall accesses
system.cache.overall_miss_rate::total        0.006303                       # miss rate for overall accesses
system.cache.demand_avg_miss_latency::.cpu.data 67523.854962                       # average overall miss latency
system.cache.demand_avg_miss_latency::total 67523.854962                       # average overall miss latency
system.cache.overall_avg_miss_latency::.cpu.data 48915.898618                       # average overall miss latency
system.cache.overall_avg_miss_latency::total 48915.898618                       # average overall miss latency
system.cache.blocked_cycles::no_mshrs               0                       # number of cycles access was blocked
system.cache.blocked_cycles::no_targets             0                       # number of cycles access was blocked
system.cache.blocked::no_mshrs                      0                       # number of cycles access was blocked
system.cache.blocked::no_targets                    0                       # number of cycles access was blocked
system.cache.avg_blocked_cycles::no_mshrs          nan                       # average number of cycles each access was blocked
system.cache.avg_blocked_cycles::no_targets          nan                       # average number of cycles each access was blocked
system.cache.demand_mshr_misses::.cpu.data         3144                       # number of demand (read+write) MSHR misses
system.cache.demand_mshr_misses::total           3144                       # number of demand (read+write) MSHR misses
system.cache.overall_mshr_misses::.cpu.data         4340                       # number of overall MSHR misses
system.cache.overall_mshr_misses::total          4340                       # number of overall MSHR misses
system.cache.demand_mshr_miss_latency::.cpu.data    206007000                       # number of demand (read+write) MSHR miss cycles
system.cache.demand_mshr_miss_latency::total    206007000                       # number of demand (read+write) MSHR miss cycles
system.cache.overall_mshr_miss_latency::.cpu.data    284647000                       # number of overall MSHR miss cycles
system.cache.overall_mshr_miss_latency::total    284647000                       # number of overall MSHR miss cycles
system.cache.demand_mshr_miss_rate::.cpu.data     0.004612                       # mshr miss rate for demand accesses
system.cache.demand_mshr_miss_rate::total     0.004612                       # mshr miss rate for demand accesses
system.cache.overall_mshr_miss_rate::.cpu.data     0.006303                       # mshr miss rate for overall accesses
system.cache.overall_mshr_miss_rate::total     0.006303                       # mshr miss rate for overall accesses
system.cache.demand_avg_mshr_miss_latency::.cpu.data 65523.854962                       # average overall mshr miss latency
system.cache.demand_avg_mshr_miss_latency::total 65523.854962                       # average overall mshr miss latency
system.cache.overall_avg_mshr_miss_latency::.cpu.data 65586.866359                       # average overall mshr miss latency
system.cache.overall_avg_mshr_miss_latency::total 65586.866359                       # average overall mshr miss latency
system.cache.replacements                           0                       # number of replacements
system.cache.ReadReq_hits::.cpu.data           380287                       # number of ReadReq hits
system.cache.ReadReq_hits::total               380287                       # number of ReadReq hits
system.cache.ReadReq_misses::.cpu.data            999                       # number of ReadReq misses
system.cache.ReadReq_misses::total                999                       # number of ReadReq misses
system.cache.ReadReq_miss_latency::.cpu.data     68835000                       # number of ReadReq miss cycles
system.cache.ReadReq_miss_latency::total     68835000                       # number of ReadReq miss cycles
system.cache.ReadReq_accesses::.cpu.data       381286                       # number of ReadReq accesses(hits+misses)
system.cache.ReadReq_accesses::total           381286                       # number of ReadReq accesses(hits+misses)
system.cache.ReadReq_miss_rate::.cpu.data     0.002620                       # miss rate for ReadReq accesses
system.cache.ReadReq_miss_rate::total        0.002620                       # miss rate for ReadReq accesses
system.cache.ReadReq_avg_miss_latency::.cpu.data 68903.903904                       # average ReadReq miss latency
system.cache.ReadReq_avg_miss_latency::total 68903.903904                       # average ReadReq miss latency
system.cache.ReadReq_mshr_misses::.cpu.data          999                       # number of ReadReq MSHR misses
system.cache.ReadReq_mshr_misses::total           999                       # number of ReadReq MSHR misses
system.cache.ReadReq_mshr_miss_latency::.cpu.data     66837000                       # number of ReadReq MSHR miss cycles
system.cache.ReadReq_mshr_miss_latency::total     66837000                       # number of ReadReq MSHR miss cycles
system.cache.ReadReq_mshr_miss_rate::.cpu.data     0.002620                       # mshr miss rate for ReadReq accesses
system.cache.ReadReq_mshr_miss_rate::total     0.002620                       # mshr miss rate for ReadReq accesses
system.cache.ReadReq_avg_mshr_miss_latency::.cpu.data 66903.903904                       # average ReadReq mshr miss latency
system.cache.ReadReq_avg_mshr_miss_latency::total 66903.903904                       # average ReadReq mshr miss latency
system.cache.WriteReq_hits::.cpu.data          298341                       # number of WriteReq hits
system.cache.WriteReq_hits::total              298341                       # number of WriteReq hits
system.cache.WriteReq_misses::.cpu.data          2145                       # number of WriteReq misses
system.cache.WriteReq_misses::total              2145                       # number of WriteReq misses
system.cache.WriteReq_miss_latency::.cpu.data    143460000                       # number of WriteReq miss cycles
system.cache.WriteReq_miss_latency::total    143460000                       # number of WriteReq miss cycles
system.cache.WriteReq_accesses::.cpu.data       300486                       # number of WriteReq accesses(hits+misses)
system.cache.WriteReq_accesses::total          300486                       # number of WriteReq accesses(hits+misses)
system.cache.WriteReq_miss_rate::.cpu.data     0.007138                       # miss rate for WriteReq accesses
system.cache.WriteReq_miss_rate::total       0.007138                       # miss rate for WriteReq accesses
system.cache.WriteReq_avg_miss_latency::.cpu.data 66881.118881                       # average WriteReq miss latency
system.cache.WriteReq_avg_miss_latency::total 66881.118881                       # average WriteReq miss latency
system.cache.WriteReq_mshr_misses::.cpu.data         2145                       # number of WriteReq MSHR misses
system.cache.WriteReq_mshr_misses::total         2145                       # number of WriteReq MSHR misses
system.cache.WriteReq_mshr_miss_latency::.cpu.data    139170000                       # number of WriteReq MSHR miss cycles
system.cache.WriteReq_mshr_miss_latency::total    139170000                       # number of WriteReq MSHR miss cycles
system.cache.WriteReq_mshr_miss_rate::.cpu.data     0.007138                       # mshr miss rate for WriteReq accesses
system.cache.WriteReq_mshr_miss_rate::total     0.007138                       # mshr miss rate for WriteReq accesses
system.cache.WriteReq_avg_mshr_miss_latency::.cpu.data 64881.118881                       # average WriteReq mshr miss latency
system.cache.WriteReq_avg_mshr_miss_latency::total 64881.118881                       # average WriteReq mshr miss latency
system.cache.SoftPFReq_hits::.cpu.data           5585                       # number of SoftPFReq hits
system.cache.SoftPFReq_hits::total               5585                       # number of SoftPFReq hits
system.cache.SoftPFReq_misses::.cpu.data         1196                       # number of SoftPFReq misses
system.cache.SoftPFReq_misses::total             1196                       # number of SoftPFReq misses
system.cache.SoftPFReq_accesses::.cpu.data         6781                       # number of SoftPFReq accesses(hits+misses)
system.cache.SoftPFReq_accesses::total           6781                       # number of SoftPFReq accesses(hits+misses)
system.cache.SoftPFReq_miss_rate::.cpu.data     0.176375                       # miss rate for SoftPFReq accesses
system.cache.SoftPFReq_miss_rate::total      0.176375                       # miss rate for SoftPFReq accesses
system.cache.SoftPFReq_mshr_misses::.cpu.data         1196                       # number of SoftPFReq MSHR misses
system.cache.SoftPFReq_mshr_misses::total         1196                       # number of SoftPFReq MSHR misses
system.cache.SoftPFReq_mshr_miss_latency::.cpu.data     78640000                       # number of SoftPFReq MSHR miss cycles
system.cache.SoftPFReq_mshr_miss_latency::total     78640000                       # number of SoftPFReq MSHR miss cycles
system.cache.SoftPFReq_mshr_miss_rate::.cpu.data     0.176375                       # mshr miss rate for SoftPFReq accesses
system.cache.SoftPFReq_mshr_miss_rate::total     0.176375                       # mshr miss rate for SoftPFReq accesses
system.cache.SoftPFReq_avg_mshr_miss_latency::.cpu.data 65752.508361                       # average SoftPFReq mshr miss latency
system.cache.SoftPFReq_avg_mshr_miss_latency::total 65752.508361                       # average SoftPFReq mshr miss latency
system.cache.power_state.pwrStateResidencyTicks::UNDEFINED 226957226000                       # Cumulative time (in ticks) in various power states
system.cache.tags.tagsinuse               1197.794468                       # Cycle average of tags in use
system.cache.tags.total_refs                   688553                       # Total number of references to valid blocks.
system.cache.tags.sampled_refs                   4340                       # Sample count of references to valid blocks.
system.cache.tags.avg_refs                 158.652765                       # Average number of references to valid blocks.
system.cache.tags.warmup_cycle            91414065000                       # Cycle when the warmup percentage was hit.
system.cache.tags.occ_blocks::.cpu.data   1197.794468                       # Average occupied blocks per requestor
system.cache.tags.occ_percent::.cpu.data     0.036554                       # Average percentage of cache occupancy
system.cache.tags.occ_percent::total         0.036554                       # Average percentage of cache occupancy
system.cache.tags.occ_task_id_blocks::1024         4340                       # Occupied blocks per task id
system.cache.tags.age_task_id_blocks_1024::2            4                       # Occupied blocks per task id
system.cache.tags.age_task_id_blocks_1024::3           59                       # Occupied blocks per task id
system.cache.tags.age_task_id_blocks_1024::4         4277                       # Occupied blocks per task id
system.cache.tags.occ_task_id_percent::1024     0.132446                       # Percentage of cache occupancy per task id
system.cache.tags.tag_accesses                 692893                       # Number of tag accesses
system.cache.tags.data_accesses                692893                       # Number of data accesses
system.cache.tags.power_state.pwrStateResidencyTicks::UNDEFINED 226957226000                       # Cumulative time (in ticks) in various power states
system.clk_domain.clock                          1000                       # Clock period in ticks
system.clk_domain.voltage_domain.voltage            1                       # Voltage in Volts
system.cachebus.trans_dist::ReadReq            381286                       # Transaction distribution
system.cachebus.trans_dist::ReadResp           381286                       # Transaction distribution
system.cachebus.trans_dist::WriteReq           300486                       # Transaction distribution
system.cachebus.trans_dist::WriteResp          300485                       # Transaction distribution
system.cachebus.trans_dist::SoftPFReq            6781                       # Transaction distribution
system.cachebus.trans_dist::SoftPFResp           6781                       # Transaction distribution
system.cachebus.pkt_count_system.memobj.cache_side::system.cache.cpu_side      1377105                       # Packet count per connected master and slave (bytes)
system.cachebus.pkt_size_system.memobj.cache_side::system.cache.cpu_side      4585837                       # Cumulative packet size per connected master and slave (bytes)
system.cachebus.snoops                              0                       # Total snoops (count)
system.cachebus.snoopTraffic                        0                       # Total snoop traffic (bytes)
system.cachebus.snoop_fanout::samples          688553                       # Request fanout histogram
system.cachebus.snoop_fanout::mean                  0                       # Request fanout histogram
system.cachebus.snoop_fanout::stdev                 0                       # Request fanout histogram
system.cachebus.snoop_fanout::underflows            0      0.00%      0.00% # Request fanout histogram
system.cachebus.snoop_fanout::0                688553    100.00%    100.00% # Request fanout histogram
system.cachebus.snoop_fanout::overflows             0      0.00%    100.00% # Request fanout histogram
system.cachebus.snoop_fanout::min_value             0                       # Request fanout histogram
system.cachebus.snoop_fanout::max_value             0                       # Request fanout histogram
system.cachebus.snoop_fanout::total            688553                       # Request fanout histogram
system.cachebus.reqLayer0.occupancy         989039000                       # Layer occupancy (ticks)
system.cachebus.reqLayer0.utilization             0.4                       # Layer utilization (%)
system.cachebus.respLayer0.occupancy       1076619000                       # Layer occupancy (ticks)
system.cachebus.respLayer0.utilization            0.5                       # Layer utilization (%)
system.cachebus.power_state.pwrStateResidencyTicks::UNDEFINED 226957226000                       # Cumulative time (in ticks) in various power states
system.cpu.dtb.walker.power_state.pwrStateResidencyTicks::UNDEFINED 226957226000                       # Cumulative time (in ticks) in various power states
system.cpu.interrupts.clk_domain.clock          16000                       # Clock period in ticks
system.cpu.itb.walker.power_state.pwrStateResidencyTicks::UNDEFINED 226957226000                       # Cumulative time (in ticks) in various power states
system.cpu.power_state.numTransitions               1                       # Number of power state transitions
system.cpu.power_state.pwrStateResidencyTicks::ON 226957226000                       # Cumulative time (in ticks) in various power states

---------- End Simulation Statistics   ----------
