
---------- Begin Simulation Statistics ----------
final_tick                                 3580000000                       # Number of ticks from beginning of simulation (restored from checkpoints and never reset)
host_inst_rate                                 104718                       # Simulator instruction rate (inst/s)
host_mem_usage                               34210040                       # Number of bytes of host memory used
host_op_rate                                   184620                       # Simulator op (including micro ops) rate (op/s)
host_seconds                                     9.55                       # Real time elapsed on the host
host_tick_rate                              374878997                       # Simulator tick rate (ticks/s)
sim_freq                                 1000000000000                       # Frequency of simulated ticks
sim_insts                                     1000002                       # Number of instructions simulated
sim_ops                                       1763067                       # Number of ops (including micro ops) simulated
sim_seconds                                  0.003580                       # Number of seconds simulated
sim_ticks                                  3580000000                       # Number of ticks simulated
system.cpu.Branches                            268143                       # Number of branches fetched
system.cpu.committedInsts                     1000002                       # Number of instructions committed
system.cpu.committedOps                       1763067                       # Number of ops (including micro ops) committed
system.cpu.dtb.rdAccesses                       28138                       # TLB accesses on read requests
system.cpu.dtb.rdMisses                            17                       # TLB misses on read requests
system.cpu.dtb.wrAccesses                      133575                       # TLB accesses on write requests
system.cpu.dtb.wrMisses                           233                       # TLB misses on write requests
system.cpu.idle_fraction                            0                       # Percentage of idle cycles
system.cpu.itb.rdAccesses                           0                       # TLB accesses on read requests
system.cpu.itb.rdMisses                             0                       # TLB misses on read requests
system.cpu.itb.wrAccesses                     1323466                       # TLB accesses on write requests
system.cpu.itb.wrMisses                            55                       # TLB misses on write requests
system.cpu.not_idle_fraction                        1                       # Percentage of non-idle cycles
system.cpu.numCycles                          3579989                       # number of cpu cycles simulated
system.cpu.numWorkItemsCompleted                    0                       # number of work items this cpu completed
system.cpu.numWorkItemsStarted                      0                       # number of work items this cpu started
system.cpu.num_busy_cycles                    3579989                       # Number of busy cycles
system.cpu.num_cc_register_reads              1413559                       # number of times the CC registers were read
system.cpu.num_cc_register_writes              720026                       # number of times the CC registers were written
system.cpu.num_conditional_control_insts       230507                       # number of instructions that are conditional controls
system.cpu.num_fp_alu_accesses                  49579                       # Number of float alu accesses
system.cpu.num_fp_insts                         49579                       # number of float instructions
system.cpu.num_fp_register_reads                49916                       # number of times the floating registers were read
system.cpu.num_fp_register_writes                 535                       # number of times the floating registers were written
system.cpu.num_func_calls                        3936                       # number of times a function call or return occured
system.cpu.num_idle_cycles                          0                       # Number of idle cycles
system.cpu.num_int_alu_accesses               1725244                       # Number of integer alu accesses
system.cpu.num_int_insts                      1725244                       # number of integer instructions
system.cpu.num_int_register_reads             2893034                       # number of times the integer registers were read
system.cpu.num_int_register_writes            1324928                       # number of times the integer registers were written
system.cpu.num_load_insts                       28131                       # Number of load instructions
system.cpu.num_mem_refs                        161704                       # number of memory refs
system.cpu.num_store_insts                     133573                       # Number of store instructions
system.cpu.num_vec_alu_accesses                     0                       # Number of vector alu accesses
system.cpu.num_vec_insts                            0                       # number of vector instructions
system.cpu.num_vec_register_reads                   0                       # number of times the vector registers were read
system.cpu.num_vec_register_writes                  0                       # number of times the vector registers were written
system.cpu.op_class::No_OpClass                 33401      1.89%      1.89% # Class of executed instruction
system.cpu.op_class::IntAlu                   1566516     88.85%     90.74% # Class of executed instruction
system.cpu.op_class::IntMult                     1086      0.06%     90.80% # Class of executed instruction
system.cpu.op_class::IntDiv                        21      0.00%     90.80% # Class of executed instruction
system.cpu.op_class::FloatAdd                      11      0.00%     90.80% # Class of executed instruction
system.cpu.op_class::FloatCmp                       0      0.00%     90.80% # Class of executed instruction
system.cpu.op_class::FloatCvt                       0      0.00%     90.80% # Class of executed instruction
system.cpu.op_class::FloatMult                      0      0.00%     90.80% # Class of executed instruction
system.cpu.op_class::FloatMultAcc                   0      0.00%     90.80% # Class of executed instruction
system.cpu.op_class::FloatDiv                       0      0.00%     90.80% # Class of executed instruction
system.cpu.op_class::FloatMisc                      0      0.00%     90.80% # Class of executed instruction
system.cpu.op_class::FloatSqrt                      0      0.00%     90.80% # Class of executed instruction
system.cpu.op_class::SimdAdd                        0      0.00%     90.80% # Class of executed instruction
system.cpu.op_class::SimdAddAcc                     0      0.00%     90.80% # Class of executed instruction
system.cpu.op_class::SimdAlu                      164      0.01%     90.81% # Class of executed instruction
system.cpu.op_class::SimdCmp                       14      0.00%     90.81% # Class of executed instruction
system.cpu.op_class::SimdCvt                       96      0.01%     90.82% # Class of executed instruction
system.cpu.op_class::SimdMisc                     155      0.01%     90.83% # Class of executed instruction
system.cpu.op_class::SimdMult                       0      0.00%     90.83% # Class of executed instruction
system.cpu.op_class::SimdMultAcc                    0      0.00%     90.83% # Class of executed instruction
system.cpu.op_class::SimdShift                      0      0.00%     90.83% # Class of executed instruction
system.cpu.op_class::SimdShiftAcc                   0      0.00%     90.83% # Class of executed instruction
system.cpu.op_class::SimdDiv                        0      0.00%     90.83% # Class of executed instruction
system.cpu.op_class::SimdSqrt                       0      0.00%     90.83% # Class of executed instruction
system.cpu.op_class::SimdFloatAdd                   0      0.00%     90.83% # Class of executed instruction
system.cpu.op_class::SimdFloatAlu                   0      0.00%     90.83% # Class of executed instruction
system.cpu.op_class::SimdFloatCmp                   0      0.00%     90.83% # Class of executed instruction
system.cpu.op_class::SimdFloatCvt                   0      0.00%     90.83% # Class of executed instruction
system.cpu.op_class::SimdFloatDiv                   0      0.00%     90.83% # Class of executed instruction
system.cpu.op_class::SimdFloatMisc                  0      0.00%     90.83% # Class of executed instruction
system.cpu.op_class::SimdFloatMult                  0      0.00%     90.83% # Class of executed instruction
system.cpu.op_class::SimdFloatMultAcc               0      0.00%     90.83% # Class of executed instruction
system.cpu.op_class::SimdFloatSqrt                  0      0.00%     90.83% # Class of executed instruction
system.cpu.op_class::SimdReduceAdd                  0      0.00%     90.83% # Class of executed instruction
system.cpu.op_class::SimdReduceAlu                  0      0.00%     90.83% # Class of executed instruction
system.cpu.op_class::SimdReduceCmp                  0      0.00%     90.83% # Class of executed instruction
system.cpu.op_class::SimdFloatReduceAdd             0      0.00%     90.83% # Class of executed instruction
system.cpu.op_class::SimdFloatReduceCmp             0      0.00%     90.83% # Class of executed instruction
system.cpu.op_class::SimdAes                        0      0.00%     90.83% # Class of executed instruction
system.cpu.op_class::SimdAesMix                     0      0.00%     90.83% # Class of executed instruction
system.cpu.op_class::SimdSha1Hash                   0      0.00%     90.83% # Class of executed instruction
system.cpu.op_class::SimdSha1Hash2                  0      0.00%     90.83% # Class of executed instruction
system.cpu.op_class::SimdSha256Hash                 0      0.00%     90.83% # Class of executed instruction
system.cpu.op_class::SimdSha256Hash2                0      0.00%     90.83% # Class of executed instruction
system.cpu.op_class::SimdShaSigma2                  0      0.00%     90.83% # Class of executed instruction
system.cpu.op_class::SimdShaSigma3                  0      0.00%     90.83% # Class of executed instruction
system.cpu.op_class::SimdPredAlu                    0      0.00%     90.83% # Class of executed instruction
system.cpu.op_class::MemRead                    27993      1.59%     92.42% # Class of executed instruction
system.cpu.op_class::MemWrite                   84607      4.80%     97.22% # Class of executed instruction
system.cpu.op_class::FloatMemRead                 138      0.01%     97.22% # Class of executed instruction
system.cpu.op_class::FloatMemWrite              48966      2.78%    100.00% # Class of executed instruction
system.cpu.op_class::IprAccess                      0      0.00%    100.00% # Class of executed instruction
system.cpu.op_class::InstPrefetch                   0      0.00%    100.00% # Class of executed instruction
system.cpu.op_class::total                    1763168                       # Class of executed instruction
system.cpu.workload.numSyscalls                    11                       # Number of system calls
system.dynamic_cache.flushTicks                     0                       # Ticks taken to flush
system.dynamic_cache.numFlushes                     0                       # Number of Flushes Taken
system.cache_small.demand_hits::.cpu.inst          168                       # number of demand (read+write) hits
system.cache_small.demand_hits::.cpu.data           92                       # number of demand (read+write) hits
system.cache_small.demand_hits::total             260                       # number of demand (read+write) hits
system.cache_small.overall_hits::.cpu.inst          168                       # number of overall hits
system.cache_small.overall_hits::.cpu.data           92                       # number of overall hits
system.cache_small.overall_hits::total            260                       # number of overall hits
system.cache_small.demand_misses::.cpu.inst          573                       # number of demand (read+write) misses
system.cache_small.demand_misses::.cpu.data         7798                       # number of demand (read+write) misses
system.cache_small.demand_misses::total          8371                       # number of demand (read+write) misses
system.cache_small.overall_misses::.cpu.inst          573                       # number of overall misses
system.cache_small.overall_misses::.cpu.data         7798                       # number of overall misses
system.cache_small.overall_misses::total         8371                       # number of overall misses
system.cache_small.demand_miss_latency::.cpu.inst     33990000                       # number of demand (read+write) miss cycles
system.cache_small.demand_miss_latency::.cpu.data    443461000                       # number of demand (read+write) miss cycles
system.cache_small.demand_miss_latency::total    477451000                       # number of demand (read+write) miss cycles
system.cache_small.overall_miss_latency::.cpu.inst     33990000                       # number of overall miss cycles
system.cache_small.overall_miss_latency::.cpu.data    443461000                       # number of overall miss cycles
system.cache_small.overall_miss_latency::total    477451000                       # number of overall miss cycles
system.cache_small.demand_accesses::.cpu.inst          741                       # number of demand (read+write) accesses
system.cache_small.demand_accesses::.cpu.data         7890                       # number of demand (read+write) accesses
system.cache_small.demand_accesses::total         8631                       # number of demand (read+write) accesses
system.cache_small.overall_accesses::.cpu.inst          741                       # number of overall (read+write) accesses
system.cache_small.overall_accesses::.cpu.data         7890                       # number of overall (read+write) accesses
system.cache_small.overall_accesses::total         8631                       # number of overall (read+write) accesses
system.cache_small.demand_miss_rate::.cpu.inst     0.773279                       # miss rate for demand accesses
system.cache_small.demand_miss_rate::.cpu.data     0.988340                       # miss rate for demand accesses
system.cache_small.demand_miss_rate::total     0.969876                       # miss rate for demand accesses
system.cache_small.overall_miss_rate::.cpu.inst     0.773279                       # miss rate for overall accesses
system.cache_small.overall_miss_rate::.cpu.data     0.988340                       # miss rate for overall accesses
system.cache_small.overall_miss_rate::total     0.969876                       # miss rate for overall accesses
system.cache_small.demand_avg_miss_latency::.cpu.inst 59319.371728                       # average overall miss latency
system.cache_small.demand_avg_miss_latency::.cpu.data 56868.556040                       # average overall miss latency
system.cache_small.demand_avg_miss_latency::total 57036.315852                       # average overall miss latency
system.cache_small.overall_avg_miss_latency::.cpu.inst 59319.371728                       # average overall miss latency
system.cache_small.overall_avg_miss_latency::.cpu.data 56868.556040                       # average overall miss latency
system.cache_small.overall_avg_miss_latency::total 57036.315852                       # average overall miss latency
system.cache_small.blocked_cycles::no_mshrs            0                       # number of cycles access was blocked
system.cache_small.blocked_cycles::no_targets            0                       # number of cycles access was blocked
system.cache_small.blocked::no_mshrs                0                       # number of cycles access was blocked
system.cache_small.blocked::no_targets              0                       # number of cycles access was blocked
system.cache_small.avg_blocked_cycles::no_mshrs          nan                       # average number of cycles each access was blocked
system.cache_small.avg_blocked_cycles::no_targets          nan                       # average number of cycles each access was blocked
system.cache_small.writebacks::.writebacks            2                       # number of writebacks
system.cache_small.writebacks::total                2                       # number of writebacks
system.cache_small.demand_mshr_misses::.cpu.inst          573                       # number of demand (read+write) MSHR misses
system.cache_small.demand_mshr_misses::.cpu.data         7798                       # number of demand (read+write) MSHR misses
system.cache_small.demand_mshr_misses::total         8371                       # number of demand (read+write) MSHR misses
system.cache_small.overall_mshr_misses::.cpu.inst          573                       # number of overall MSHR misses
system.cache_small.overall_mshr_misses::.cpu.data         7798                       # number of overall MSHR misses
system.cache_small.overall_mshr_misses::total         8371                       # number of overall MSHR misses
system.cache_small.demand_mshr_miss_latency::.cpu.inst     32844000                       # number of demand (read+write) MSHR miss cycles
system.cache_small.demand_mshr_miss_latency::.cpu.data    427865000                       # number of demand (read+write) MSHR miss cycles
system.cache_small.demand_mshr_miss_latency::total    460709000                       # number of demand (read+write) MSHR miss cycles
system.cache_small.overall_mshr_miss_latency::.cpu.inst     32844000                       # number of overall MSHR miss cycles
system.cache_small.overall_mshr_miss_latency::.cpu.data    427865000                       # number of overall MSHR miss cycles
system.cache_small.overall_mshr_miss_latency::total    460709000                       # number of overall MSHR miss cycles
system.cache_small.demand_mshr_miss_rate::.cpu.inst     0.773279                       # mshr miss rate for demand accesses
system.cache_small.demand_mshr_miss_rate::.cpu.data     0.988340                       # mshr miss rate for demand accesses
system.cache_small.demand_mshr_miss_rate::total     0.969876                       # mshr miss rate for demand accesses
system.cache_small.overall_mshr_miss_rate::.cpu.inst     0.773279                       # mshr miss rate for overall accesses
system.cache_small.overall_mshr_miss_rate::.cpu.data     0.988340                       # mshr miss rate for overall accesses
system.cache_small.overall_mshr_miss_rate::total     0.969876                       # mshr miss rate for overall accesses
system.cache_small.demand_avg_mshr_miss_latency::.cpu.inst 57319.371728                       # average overall mshr miss latency
system.cache_small.demand_avg_mshr_miss_latency::.cpu.data 54868.556040                       # average overall mshr miss latency
system.cache_small.demand_avg_mshr_miss_latency::total 55036.315852                       # average overall mshr miss latency
system.cache_small.overall_avg_mshr_miss_latency::.cpu.inst 57319.371728                       # average overall mshr miss latency
system.cache_small.overall_avg_mshr_miss_latency::.cpu.data 54868.556040                       # average overall mshr miss latency
system.cache_small.overall_avg_mshr_miss_latency::total 55036.315852                       # average overall mshr miss latency
system.cache_small.replacements                   195                       # number of replacements
system.cache_small.ReadReq_hits::.cpu.inst          168                       # number of ReadReq hits
system.cache_small.ReadReq_hits::.cpu.data           92                       # number of ReadReq hits
system.cache_small.ReadReq_hits::total            260                       # number of ReadReq hits
system.cache_small.ReadReq_misses::.cpu.inst          573                       # number of ReadReq misses
system.cache_small.ReadReq_misses::.cpu.data         7798                       # number of ReadReq misses
system.cache_small.ReadReq_misses::total         8371                       # number of ReadReq misses
system.cache_small.ReadReq_miss_latency::.cpu.inst     33990000                       # number of ReadReq miss cycles
system.cache_small.ReadReq_miss_latency::.cpu.data    443461000                       # number of ReadReq miss cycles
system.cache_small.ReadReq_miss_latency::total    477451000                       # number of ReadReq miss cycles
system.cache_small.ReadReq_accesses::.cpu.inst          741                       # number of ReadReq accesses(hits+misses)
system.cache_small.ReadReq_accesses::.cpu.data         7890                       # number of ReadReq accesses(hits+misses)
system.cache_small.ReadReq_accesses::total         8631                       # number of ReadReq accesses(hits+misses)
system.cache_small.ReadReq_miss_rate::.cpu.inst     0.773279                       # miss rate for ReadReq accesses
system.cache_small.ReadReq_miss_rate::.cpu.data     0.988340                       # miss rate for ReadReq accesses
system.cache_small.ReadReq_miss_rate::total     0.969876                       # miss rate for ReadReq accesses
system.cache_small.ReadReq_avg_miss_latency::.cpu.inst 59319.371728                       # average ReadReq miss latency
system.cache_small.ReadReq_avg_miss_latency::.cpu.data 56868.556040                       # average ReadReq miss latency
system.cache_small.ReadReq_avg_miss_latency::total 57036.315852                       # average ReadReq miss latency
system.cache_small.ReadReq_mshr_misses::.cpu.inst          573                       # number of ReadReq MSHR misses
system.cache_small.ReadReq_mshr_misses::.cpu.data         7798                       # number of ReadReq MSHR misses
system.cache_small.ReadReq_mshr_misses::total         8371                       # number of ReadReq MSHR misses
system.cache_small.ReadReq_mshr_miss_latency::.cpu.inst     32844000                       # number of ReadReq MSHR miss cycles
system.cache_small.ReadReq_mshr_miss_latency::.cpu.data    427865000                       # number of ReadReq MSHR miss cycles
system.cache_small.ReadReq_mshr_miss_latency::total    460709000                       # number of ReadReq MSHR miss cycles
system.cache_small.ReadReq_mshr_miss_rate::.cpu.inst     0.773279                       # mshr miss rate for ReadReq accesses
system.cache_small.ReadReq_mshr_miss_rate::.cpu.data     0.988340                       # mshr miss rate for ReadReq accesses
system.cache_small.ReadReq_mshr_miss_rate::total     0.969876                       # mshr miss rate for ReadReq accesses
system.cache_small.ReadReq_avg_mshr_miss_latency::.cpu.inst 57319.371728                       # average ReadReq mshr miss latency
system.cache_small.ReadReq_avg_mshr_miss_latency::.cpu.data 54868.556040                       # average ReadReq mshr miss latency
system.cache_small.ReadReq_avg_mshr_miss_latency::total 55036.315852                       # average ReadReq mshr miss latency
system.cache_small.WritebackDirty_hits::.writebacks         7225                       # number of WritebackDirty hits
system.cache_small.WritebackDirty_hits::total         7225                       # number of WritebackDirty hits
system.cache_small.WritebackDirty_accesses::.writebacks         7225                       # number of WritebackDirty accesses(hits+misses)
system.cache_small.WritebackDirty_accesses::total         7225                       # number of WritebackDirty accesses(hits+misses)
system.cache_small.power_state.pwrStateResidencyTicks::UNDEFINED   3580000000                       # Cumulative time (in ticks) in various power states
system.cache_small.tags.tagsinuse         1980.116685                       # Cycle average of tags in use
system.cache_small.tags.total_refs                207                       # Total number of references to valid blocks.
system.cache_small.tags.sampled_refs              195                       # Sample count of references to valid blocks.
system.cache_small.tags.avg_refs             1.061538                       # Average number of references to valid blocks.
system.cache_small.tags.warmup_cycle            76000                       # Cycle when the warmup percentage was hit.
system.cache_small.tags.occ_blocks::.writebacks     0.195133                       # Average occupied blocks per requestor
system.cache_small.tags.occ_blocks::.cpu.inst   431.476139                       # Average occupied blocks per requestor
system.cache_small.tags.occ_blocks::.cpu.data  1548.445413                       # Average occupied blocks per requestor
system.cache_small.tags.occ_percent::.writebacks     0.000012                       # Average percentage of cache occupancy
system.cache_small.tags.occ_percent::.cpu.inst     0.026335                       # Average percentage of cache occupancy
system.cache_small.tags.occ_percent::.cpu.data     0.094510                       # Average percentage of cache occupancy
system.cache_small.tags.occ_percent::total     0.120857                       # Average percentage of cache occupancy
system.cache_small.tags.occ_task_id_blocks::1024         8178                       # Occupied blocks per task id
system.cache_small.tags.age_task_id_blocks_1024::0           94                       # Occupied blocks per task id
system.cache_small.tags.age_task_id_blocks_1024::1          843                       # Occupied blocks per task id
system.cache_small.tags.age_task_id_blocks_1024::2         5518                       # Occupied blocks per task id
system.cache_small.tags.age_task_id_blocks_1024::3         1723                       # Occupied blocks per task id
system.cache_small.tags.occ_task_id_percent::1024     0.499146                       # Percentage of cache occupancy per task id
system.cache_small.tags.tag_accesses            24229                       # Number of tag accesses
system.cache_small.tags.data_accesses           24229                       # Number of data accesses
system.cache_small.tags.power_state.pwrStateResidencyTicks::UNDEFINED   3580000000                       # Cumulative time (in ticks) in various power states
system.icache.demand_hits::.cpu.inst          1322713                       # number of demand (read+write) hits
system.icache.demand_hits::total              1322713                       # number of demand (read+write) hits
system.icache.overall_hits::.cpu.inst         1322713                       # number of overall hits
system.icache.overall_hits::total             1322713                       # number of overall hits
system.icache.demand_misses::.cpu.inst            753                       # number of demand (read+write) misses
system.icache.demand_misses::total                753                       # number of demand (read+write) misses
system.icache.overall_misses::.cpu.inst           753                       # number of overall misses
system.icache.overall_misses::total               753                       # number of overall misses
system.icache.demand_miss_latency::.cpu.inst     47120000                       # number of demand (read+write) miss cycles
system.icache.demand_miss_latency::total     47120000                       # number of demand (read+write) miss cycles
system.icache.overall_miss_latency::.cpu.inst     47120000                       # number of overall miss cycles
system.icache.overall_miss_latency::total     47120000                       # number of overall miss cycles
system.icache.demand_accesses::.cpu.inst      1323466                       # number of demand (read+write) accesses
system.icache.demand_accesses::total          1323466                       # number of demand (read+write) accesses
system.icache.overall_accesses::.cpu.inst      1323466                       # number of overall (read+write) accesses
system.icache.overall_accesses::total         1323466                       # number of overall (read+write) accesses
system.icache.demand_miss_rate::.cpu.inst     0.000569                       # miss rate for demand accesses
system.icache.demand_miss_rate::total        0.000569                       # miss rate for demand accesses
system.icache.overall_miss_rate::.cpu.inst     0.000569                       # miss rate for overall accesses
system.icache.overall_miss_rate::total       0.000569                       # miss rate for overall accesses
system.icache.demand_avg_miss_latency::.cpu.inst 62576.361222                       # average overall miss latency
system.icache.demand_avg_miss_latency::total 62576.361222                       # average overall miss latency
system.icache.overall_avg_miss_latency::.cpu.inst 62576.361222                       # average overall miss latency
system.icache.overall_avg_miss_latency::total 62576.361222                       # average overall miss latency
system.icache.blocked_cycles::no_mshrs              0                       # number of cycles access was blocked
system.icache.blocked_cycles::no_targets            0                       # number of cycles access was blocked
system.icache.blocked::no_mshrs                     0                       # number of cycles access was blocked
system.icache.blocked::no_targets                   0                       # number of cycles access was blocked
system.icache.avg_blocked_cycles::no_mshrs          nan                       # average number of cycles each access was blocked
system.icache.avg_blocked_cycles::no_targets          nan                       # average number of cycles each access was blocked
system.icache.demand_mshr_misses::.cpu.inst          753                       # number of demand (read+write) MSHR misses
system.icache.demand_mshr_misses::total           753                       # number of demand (read+write) MSHR misses
system.icache.overall_mshr_misses::.cpu.inst          753                       # number of overall MSHR misses
system.icache.overall_mshr_misses::total          753                       # number of overall MSHR misses
system.icache.demand_mshr_miss_latency::.cpu.inst     45614000                       # number of demand (read+write) MSHR miss cycles
system.icache.demand_mshr_miss_latency::total     45614000                       # number of demand (read+write) MSHR miss cycles
system.icache.overall_mshr_miss_latency::.cpu.inst     45614000                       # number of overall MSHR miss cycles
system.icache.overall_mshr_miss_latency::total     45614000                       # number of overall MSHR miss cycles
system.icache.demand_mshr_miss_rate::.cpu.inst     0.000569                       # mshr miss rate for demand accesses
system.icache.demand_mshr_miss_rate::total     0.000569                       # mshr miss rate for demand accesses
system.icache.overall_mshr_miss_rate::.cpu.inst     0.000569                       # mshr miss rate for overall accesses
system.icache.overall_mshr_miss_rate::total     0.000569                       # mshr miss rate for overall accesses
system.icache.demand_avg_mshr_miss_latency::.cpu.inst 60576.361222                       # average overall mshr miss latency
system.icache.demand_avg_mshr_miss_latency::total 60576.361222                       # average overall mshr miss latency
system.icache.overall_avg_mshr_miss_latency::.cpu.inst 60576.361222                       # average overall mshr miss latency
system.icache.overall_avg_mshr_miss_latency::total 60576.361222                       # average overall mshr miss latency
system.icache.replacements                        513                       # number of replacements
system.icache.ReadReq_hits::.cpu.inst         1322713                       # number of ReadReq hits
system.icache.ReadReq_hits::total             1322713                       # number of ReadReq hits
system.icache.ReadReq_misses::.cpu.inst           753                       # number of ReadReq misses
system.icache.ReadReq_misses::total               753                       # number of ReadReq misses
system.icache.ReadReq_miss_latency::.cpu.inst     47120000                       # number of ReadReq miss cycles
system.icache.ReadReq_miss_latency::total     47120000                       # number of ReadReq miss cycles
system.icache.ReadReq_accesses::.cpu.inst      1323466                       # number of ReadReq accesses(hits+misses)
system.icache.ReadReq_accesses::total         1323466                       # number of ReadReq accesses(hits+misses)
system.icache.ReadReq_miss_rate::.cpu.inst     0.000569                       # miss rate for ReadReq accesses
system.icache.ReadReq_miss_rate::total       0.000569                       # miss rate for ReadReq accesses
system.icache.ReadReq_avg_miss_latency::.cpu.inst 62576.361222                       # average ReadReq miss latency
system.icache.ReadReq_avg_miss_latency::total 62576.361222                       # average ReadReq miss latency
system.icache.ReadReq_mshr_misses::.cpu.inst          753                       # number of ReadReq MSHR misses
system.icache.ReadReq_mshr_misses::total          753                       # number of ReadReq MSHR misses
system.icache.ReadReq_mshr_miss_latency::.cpu.inst     45614000                       # number of ReadReq MSHR miss cycles
system.icache.ReadReq_mshr_miss_latency::total     45614000                       # number of ReadReq MSHR miss cycles
system.icache.ReadReq_mshr_miss_rate::.cpu.inst     0.000569                       # mshr miss rate for ReadReq accesses
system.icache.ReadReq_mshr_miss_rate::total     0.000569                       # mshr miss rate for ReadReq accesses
system.icache.ReadReq_avg_mshr_miss_latency::.cpu.inst 60576.361222                       # average ReadReq mshr miss latency
system.icache.ReadReq_avg_mshr_miss_latency::total 60576.361222                       # average ReadReq mshr miss latency
system.icache.power_state.pwrStateResidencyTicks::UNDEFINED   3580000000                       # Cumulative time (in ticks) in various power states
system.icache.tags.tagsinuse               233.237666                       # Cycle average of tags in use
system.icache.tags.total_refs                  117197                       # Total number of references to valid blocks.
system.icache.tags.sampled_refs                   513                       # Sample count of references to valid blocks.
system.icache.tags.avg_refs                228.454191                       # Average number of references to valid blocks.
system.icache.tags.warmup_cycle                 82000                       # Cycle when the warmup percentage was hit.
system.icache.tags.occ_blocks::.cpu.inst   233.237666                       # Average occupied blocks per requestor
system.icache.tags.occ_percent::.cpu.inst     0.911085                       # Average percentage of cache occupancy
system.icache.tags.occ_percent::total        0.911085                       # Average percentage of cache occupancy
system.icache.tags.occ_task_id_blocks::1024          240                       # Occupied blocks per task id
system.icache.tags.age_task_id_blocks_1024::2           71                       # Occupied blocks per task id
system.icache.tags.age_task_id_blocks_1024::3          169                       # Occupied blocks per task id
system.icache.tags.occ_task_id_percent::1024     0.937500                       # Percentage of cache occupancy per task id
system.icache.tags.tag_accesses               1324219                       # Number of tag accesses
system.icache.tags.data_accesses              1324219                       # Number of data accesses
system.icache.tags.power_state.pwrStateResidencyTicks::UNDEFINED   3580000000                       # Cumulative time (in ticks) in various power states
system.membus.trans_dist::ReadReq                8371                       # Transaction distribution
system.membus.trans_dist::ReadResp               8371                       # Transaction distribution
system.membus.trans_dist::WritebackDirty            2                       # Transaction distribution
system.membus.pkt_count_system.cache_small.mem_side::system.mem_ctrl.port        16744                       # Packet count per connected master and slave (bytes)
system.membus.pkt_count_system.cache_small.mem_side::total        16744                       # Packet count per connected master and slave (bytes)
system.membus.pkt_count::total                  16744                       # Packet count per connected master and slave (bytes)
system.membus.pkt_size_system.cache_small.mem_side::system.mem_ctrl.port       535872                       # Cumulative packet size per connected master and slave (bytes)
system.membus.pkt_size_system.cache_small.mem_side::total       535872                       # Cumulative packet size per connected master and slave (bytes)
system.membus.pkt_size::total                  535872                       # Cumulative packet size per connected master and slave (bytes)
system.membus.reqLayer2.occupancy             8381000                       # Layer occupancy (ticks)
system.membus.reqLayer2.utilization               0.2                       # Layer utilization (%)
system.membus.respLayer1.occupancy           44208750                       # Layer occupancy (ticks)
system.membus.respLayer1.utilization              1.2                       # Layer utilization (%)
system.membus.power_state.pwrStateResidencyTicks::UNDEFINED   3580000000                       # Cumulative time (in ticks) in various power states
system.mem_ctrl.bytes_read::.cpu.inst           36672                       # Number of bytes read from this memory
system.mem_ctrl.bytes_read::.cpu.data          499072                       # Number of bytes read from this memory
system.mem_ctrl.bytes_read::total              535744                       # Number of bytes read from this memory
system.mem_ctrl.bytes_inst_read::.cpu.inst        36672                       # Number of instructions bytes read from this memory
system.mem_ctrl.bytes_inst_read::total          36672                       # Number of instructions bytes read from this memory
system.mem_ctrl.bytes_written::.writebacks          128                       # Number of bytes written to this memory
system.mem_ctrl.bytes_written::total              128                       # Number of bytes written to this memory
system.mem_ctrl.num_reads::.cpu.inst              573                       # Number of read requests responded to by this memory
system.mem_ctrl.num_reads::.cpu.data             7798                       # Number of read requests responded to by this memory
system.mem_ctrl.num_reads::total                 8371                       # Number of read requests responded to by this memory
system.mem_ctrl.num_writes::.writebacks             2                       # Number of write requests responded to by this memory
system.mem_ctrl.num_writes::total                   2                       # Number of write requests responded to by this memory
system.mem_ctrl.bw_read::.cpu.inst           10243575                       # Total read bandwidth from this memory (bytes/s)
system.mem_ctrl.bw_read::.cpu.data          139405587                       # Total read bandwidth from this memory (bytes/s)
system.mem_ctrl.bw_read::total              149649162                       # Total read bandwidth from this memory (bytes/s)
system.mem_ctrl.bw_inst_read::.cpu.inst      10243575                       # Instruction read bandwidth from this memory (bytes/s)
system.mem_ctrl.bw_inst_read::total          10243575                       # Instruction read bandwidth from this memory (bytes/s)
system.mem_ctrl.bw_write::.writebacks           35754                       # Write bandwidth from this memory (bytes/s)
system.mem_ctrl.bw_write::total                 35754                       # Write bandwidth from this memory (bytes/s)
system.mem_ctrl.bw_total::.writebacks           35754                       # Total bandwidth to/from this memory (bytes/s)
system.mem_ctrl.bw_total::.cpu.inst          10243575                       # Total bandwidth to/from this memory (bytes/s)
system.mem_ctrl.bw_total::.cpu.data         139405587                       # Total bandwidth to/from this memory (bytes/s)
system.mem_ctrl.bw_total::total             149684916                       # Total bandwidth to/from this memory (bytes/s)
system.mem_ctrl.avgPriority_.writebacks::samples         2.00                       # Average QoS priority value for accepted requests
system.mem_ctrl.avgPriority_.cpu.inst::samples       573.00                       # Average QoS priority value for accepted requests
system.mem_ctrl.avgPriority_.cpu.data::samples      7798.00                       # Average QoS priority value for accepted requests
system.mem_ctrl.priorityMinLatency       0.000000018750                       # per QoS priority minimum request to response latency (s)
system.mem_ctrl.priorityMaxLatency       0.000000578500                       # per QoS priority maximum request to response latency (s)
system.mem_ctrl.numReadWriteTurnArounds             0                       # Number of turnarounds from READ to WRITE
system.mem_ctrl.numWriteReadTurnArounds             0                       # Number of turnarounds from WRITE to READ
system.mem_ctrl.numStayReadState                17662                       # Number of times bus staying in READ state
system.mem_ctrl.numStayWriteState                   0                       # Number of times bus staying in WRITE state
system.mem_ctrl.readReqs                         8371                       # Number of read requests accepted
system.mem_ctrl.writeReqs                           2                       # Number of write requests accepted
system.mem_ctrl.readBursts                       8371                       # Number of DRAM read bursts, including those serviced by the write queue
system.mem_ctrl.writeBursts                         2                       # Number of DRAM write bursts, including those merged in the write queue
system.mem_ctrl.servicedByWrQ                       0                       # Number of DRAM read bursts serviced by the write queue
system.mem_ctrl.mergedWrBursts                      0                       # Number of DRAM write bursts merged with an existing one
system.mem_ctrl.neitherReadNorWriteReqs             0                       # Number of requests that are neither read nor write
system.mem_ctrl.perBankRdBursts::0                557                       # Per bank write bursts
system.mem_ctrl.perBankRdBursts::1                503                       # Per bank write bursts
system.mem_ctrl.perBankRdBursts::2                448                       # Per bank write bursts
system.mem_ctrl.perBankRdBursts::3                407                       # Per bank write bursts
system.mem_ctrl.perBankRdBursts::4                362                       # Per bank write bursts
system.mem_ctrl.perBankRdBursts::5                475                       # Per bank write bursts
system.mem_ctrl.perBankRdBursts::6                524                       # Per bank write bursts
system.mem_ctrl.perBankRdBursts::7                520                       # Per bank write bursts
system.mem_ctrl.perBankRdBursts::8                631                       # Per bank write bursts
system.mem_ctrl.perBankRdBursts::9                552                       # Per bank write bursts
system.mem_ctrl.perBankRdBursts::10               572                       # Per bank write bursts
system.mem_ctrl.perBankRdBursts::11               538                       # Per bank write bursts
system.mem_ctrl.perBankRdBursts::12               524                       # Per bank write bursts
system.mem_ctrl.perBankRdBursts::13               532                       # Per bank write bursts
system.mem_ctrl.perBankRdBursts::14               567                       # Per bank write bursts
system.mem_ctrl.perBankRdBursts::15               659                       # Per bank write bursts
system.mem_ctrl.perBankWrBursts::0                  0                       # Per bank write bursts
system.mem_ctrl.perBankWrBursts::1                  0                       # Per bank write bursts
system.mem_ctrl.perBankWrBursts::2                  0                       # Per bank write bursts
system.mem_ctrl.perBankWrBursts::3                  0                       # Per bank write bursts
system.mem_ctrl.perBankWrBursts::4                  0                       # Per bank write bursts
system.mem_ctrl.perBankWrBursts::5                  0                       # Per bank write bursts
system.mem_ctrl.perBankWrBursts::6                  0                       # Per bank write bursts
system.mem_ctrl.perBankWrBursts::7                  0                       # Per bank write bursts
system.mem_ctrl.perBankWrBursts::8                  0                       # Per bank write bursts
system.mem_ctrl.perBankWrBursts::9                  0                       # Per bank write bursts
system.mem_ctrl.perBankWrBursts::10                 0                       # Per bank write bursts
system.mem_ctrl.perBankWrBursts::11                 0                       # Per bank write bursts
system.mem_ctrl.perBankWrBursts::12                 0                       # Per bank write bursts
system.mem_ctrl.perBankWrBursts::13                 0                       # Per bank write bursts
system.mem_ctrl.perBankWrBursts::14                 0                       # Per bank write bursts
system.mem_ctrl.perBankWrBursts::15                 0                       # Per bank write bursts
system.mem_ctrl.avgRdQLen                        1.00                       # Average read queue length when enqueuing
system.mem_ctrl.avgWrQLen                        0.36                       # Average write queue length when enqueuing
system.mem_ctrl.totQLat                      41898000                       # Total ticks spent queuing
system.mem_ctrl.totBusLat                    41855000                       # Total ticks spent in databus transfers
system.mem_ctrl.totMemAccLat                198854250                       # Total ticks spent from burst creation until serviced by the DRAM
system.mem_ctrl.avgQLat                       5005.14                       # Average queueing delay per DRAM burst
system.mem_ctrl.avgBusLat                     5000.00                       # Average bus latency per DRAM burst
system.mem_ctrl.avgMemAccLat                 23755.14                       # Average memory access latency per DRAM burst
system.mem_ctrl.numRdRetry                          0                       # Number of times read queue was full causing retry
system.mem_ctrl.numWrRetry                          0                       # Number of times write queue was full causing retry
system.mem_ctrl.readRowHits                      7351                       # Number of row buffer hits during reads
system.mem_ctrl.writeRowHits                        0                       # Number of row buffer hits during writes
system.mem_ctrl.readRowHitRate                  87.82                       # Row buffer hit rate for reads
system.mem_ctrl.writeRowHitRate                  0.00                       # Row buffer hit rate for writes
system.mem_ctrl.readPktSize::0                      0                       # Read request sizes (log2)
system.mem_ctrl.readPktSize::1                      0                       # Read request sizes (log2)
system.mem_ctrl.readPktSize::2                      0                       # Read request sizes (log2)
system.mem_ctrl.readPktSize::3                      0                       # Read request sizes (log2)
system.mem_ctrl.readPktSize::4                      0                       # Read request sizes (log2)
system.mem_ctrl.readPktSize::5                      0                       # Read request sizes (log2)
system.mem_ctrl.readPktSize::6                   8371                       # Read request sizes (log2)
system.mem_ctrl.writePktSize::0                     0                       # Write request sizes (log2)
system.mem_ctrl.writePktSize::1                     0                       # Write request sizes (log2)
system.mem_ctrl.writePktSize::2                     0                       # Write request sizes (log2)
system.mem_ctrl.writePktSize::3                     0                       # Write request sizes (log2)
system.mem_ctrl.writePktSize::4                     0                       # Write request sizes (log2)
system.mem_ctrl.writePktSize::5                     0                       # Write request sizes (log2)
system.mem_ctrl.writePktSize::6                     2                       # Write request sizes (log2)
system.mem_ctrl.rdQLenPdf::0                     8371                       # What read queue length does an incoming req see
system.mem_ctrl.rdQLenPdf::1                        0                       # What read queue length does an incoming req see
system.mem_ctrl.rdQLenPdf::2                        0                       # What read queue length does an incoming req see
system.mem_ctrl.rdQLenPdf::3                        0                       # What read queue length does an incoming req see
system.mem_ctrl.rdQLenPdf::4                        0                       # What read queue length does an incoming req see
system.mem_ctrl.rdQLenPdf::5                        0                       # What read queue length does an incoming req see
system.mem_ctrl.rdQLenPdf::6                        0                       # What read queue length does an incoming req see
system.mem_ctrl.rdQLenPdf::7                        0                       # What read queue length does an incoming req see
system.mem_ctrl.rdQLenPdf::8                        0                       # What read queue length does an incoming req see
system.mem_ctrl.rdQLenPdf::9                        0                       # What read queue length does an incoming req see
system.mem_ctrl.rdQLenPdf::10                       0                       # What read queue length does an incoming req see
system.mem_ctrl.rdQLenPdf::11                       0                       # What read queue length does an incoming req see
system.mem_ctrl.rdQLenPdf::12                       0                       # What read queue length does an incoming req see
system.mem_ctrl.rdQLenPdf::13                       0                       # What read queue length does an incoming req see
system.mem_ctrl.rdQLenPdf::14                       0                       # What read queue length does an incoming req see
system.mem_ctrl.rdQLenPdf::15                       0                       # What read queue length does an incoming req see
system.mem_ctrl.rdQLenPdf::16                       0                       # What read queue length does an incoming req see
system.mem_ctrl.rdQLenPdf::17                       0                       # What read queue length does an incoming req see
system.mem_ctrl.rdQLenPdf::18                       0                       # What read queue length does an incoming req see
system.mem_ctrl.rdQLenPdf::19                       0                       # What read queue length does an incoming req see
system.mem_ctrl.rdQLenPdf::20                       0                       # What read queue length does an incoming req see
system.mem_ctrl.rdQLenPdf::21                       0                       # What read queue length does an incoming req see
system.mem_ctrl.rdQLenPdf::22                       0                       # What read queue length does an incoming req see
system.mem_ctrl.rdQLenPdf::23                       0                       # What read queue length does an incoming req see
system.mem_ctrl.rdQLenPdf::24                       0                       # What read queue length does an incoming req see
system.mem_ctrl.rdQLenPdf::25                       0                       # What read queue length does an incoming req see
system.mem_ctrl.rdQLenPdf::26                       0                       # What read queue length does an incoming req see
system.mem_ctrl.rdQLenPdf::27                       0                       # What read queue length does an incoming req see
system.mem_ctrl.rdQLenPdf::28                       0                       # What read queue length does an incoming req see
system.mem_ctrl.rdQLenPdf::29                       0                       # What read queue length does an incoming req see
system.mem_ctrl.rdQLenPdf::30                       0                       # What read queue length does an incoming req see
system.mem_ctrl.rdQLenPdf::31                       0                       # What read queue length does an incoming req see
system.mem_ctrl.wrQLenPdf::0                        1                       # What write queue length does an incoming req see
system.mem_ctrl.wrQLenPdf::1                        1                       # What write queue length does an incoming req see
system.mem_ctrl.wrQLenPdf::2                        0                       # What write queue length does an incoming req see
system.mem_ctrl.wrQLenPdf::3                        0                       # What write queue length does an incoming req see
system.mem_ctrl.wrQLenPdf::4                        0                       # What write queue length does an incoming req see
system.mem_ctrl.wrQLenPdf::5                        0                       # What write queue length does an incoming req see
system.mem_ctrl.wrQLenPdf::6                        0                       # What write queue length does an incoming req see
system.mem_ctrl.wrQLenPdf::7                        0                       # What write queue length does an incoming req see
system.mem_ctrl.wrQLenPdf::8                        0                       # What write queue length does an incoming req see
system.mem_ctrl.wrQLenPdf::9                        0                       # What write queue length does an incoming req see
system.mem_ctrl.wrQLenPdf::10                       0                       # What write queue length does an incoming req see
system.mem_ctrl.wrQLenPdf::11                       0                       # What write queue length does an incoming req see
system.mem_ctrl.wrQLenPdf::12                       0                       # What write queue length does an incoming req see
system.mem_ctrl.wrQLenPdf::13                       0                       # What write queue length does an incoming req see
system.mem_ctrl.wrQLenPdf::14                       0                       # What write queue length does an incoming req see
system.mem_ctrl.wrQLenPdf::15                       0                       # What write queue length does an incoming req see
system.mem_ctrl.wrQLenPdf::16                       0                       # What write queue length does an incoming req see
system.mem_ctrl.wrQLenPdf::17                       0                       # What write queue length does an incoming req see
system.mem_ctrl.wrQLenPdf::18                       0                       # What write queue length does an incoming req see
system.mem_ctrl.wrQLenPdf::19                       0                       # What write queue length does an incoming req see
system.mem_ctrl.wrQLenPdf::20                       0                       # What write queue length does an incoming req see
system.mem_ctrl.wrQLenPdf::21                       0                       # What write queue length does an incoming req see
system.mem_ctrl.wrQLenPdf::22                       0                       # What write queue length does an incoming req see
system.mem_ctrl.wrQLenPdf::23                       0                       # What write queue length does an incoming req see
system.mem_ctrl.wrQLenPdf::24                       0                       # What write queue length does an incoming req see
system.mem_ctrl.wrQLenPdf::25                       0                       # What write queue length does an incoming req see
system.mem_ctrl.wrQLenPdf::26                       0                       # What write queue length does an incoming req see
system.mem_ctrl.wrQLenPdf::27                       0                       # What write queue length does an incoming req see
system.mem_ctrl.wrQLenPdf::28                       0                       # What write queue length does an incoming req see
system.mem_ctrl.wrQLenPdf::29                       0                       # What write queue length does an incoming req see
system.mem_ctrl.wrQLenPdf::30                       0                       # What write queue length does an incoming req see
system.mem_ctrl.wrQLenPdf::31                       0                       # What write queue length does an incoming req see
system.mem_ctrl.wrQLenPdf::32                       0                       # What write queue length does an incoming req see
system.mem_ctrl.wrQLenPdf::33                       0                       # What write queue length does an incoming req see
system.mem_ctrl.wrQLenPdf::34                       0                       # What write queue length does an incoming req see
system.mem_ctrl.wrQLenPdf::35                       0                       # What write queue length does an incoming req see
system.mem_ctrl.wrQLenPdf::36                       0                       # What write queue length does an incoming req see
system.mem_ctrl.wrQLenPdf::37                       0                       # What write queue length does an incoming req see
system.mem_ctrl.wrQLenPdf::38                       0                       # What write queue length does an incoming req see
system.mem_ctrl.wrQLenPdf::39                       0                       # What write queue length does an incoming req see
system.mem_ctrl.wrQLenPdf::40                       0                       # What write queue length does an incoming req see
system.mem_ctrl.wrQLenPdf::41                       0                       # What write queue length does an incoming req see
system.mem_ctrl.wrQLenPdf::42                       0                       # What write queue length does an incoming req see
system.mem_ctrl.wrQLenPdf::43                       0                       # What write queue length does an incoming req see
system.mem_ctrl.wrQLenPdf::44                       0                       # What write queue length does an incoming req see
system.mem_ctrl.wrQLenPdf::45                       0                       # What write queue length does an incoming req see
system.mem_ctrl.wrQLenPdf::46                       0                       # What write queue length does an incoming req see
system.mem_ctrl.wrQLenPdf::47                       0                       # What write queue length does an incoming req see
system.mem_ctrl.wrQLenPdf::48                       0                       # What write queue length does an incoming req see
system.mem_ctrl.wrQLenPdf::49                       0                       # What write queue length does an incoming req see
system.mem_ctrl.wrQLenPdf::50                       0                       # What write queue length does an incoming req see
system.mem_ctrl.wrQLenPdf::51                       0                       # What write queue length does an incoming req see
system.mem_ctrl.wrQLenPdf::52                       0                       # What write queue length does an incoming req see
system.mem_ctrl.wrQLenPdf::53                       0                       # What write queue length does an incoming req see
system.mem_ctrl.wrQLenPdf::54                       0                       # What write queue length does an incoming req see
system.mem_ctrl.wrQLenPdf::55                       0                       # What write queue length does an incoming req see
system.mem_ctrl.wrQLenPdf::56                       0                       # What write queue length does an incoming req see
system.mem_ctrl.wrQLenPdf::57                       0                       # What write queue length does an incoming req see
system.mem_ctrl.wrQLenPdf::58                       0                       # What write queue length does an incoming req see
system.mem_ctrl.wrQLenPdf::59                       0                       # What write queue length does an incoming req see
system.mem_ctrl.wrQLenPdf::60                       0                       # What write queue length does an incoming req see
system.mem_ctrl.wrQLenPdf::61                       0                       # What write queue length does an incoming req see
system.mem_ctrl.wrQLenPdf::62                       0                       # What write queue length does an incoming req see
system.mem_ctrl.wrQLenPdf::63                       0                       # What write queue length does an incoming req see
system.mem_ctrl.bytesPerActivate::samples         1018                       # Bytes accessed per row activation
system.mem_ctrl.bytesPerActivate::mean     525.768173                       # Bytes accessed per row activation
system.mem_ctrl.bytesPerActivate::gmean    367.926018                       # Bytes accessed per row activation
system.mem_ctrl.bytesPerActivate::stdev    385.548563                       # Bytes accessed per row activation
system.mem_ctrl.bytesPerActivate::0-127            89      8.74%      8.74% # Bytes accessed per row activation
system.mem_ctrl.bytesPerActivate::128-255          232     22.79%     31.53% # Bytes accessed per row activation
system.mem_ctrl.bytesPerActivate::256-383          219     21.51%     53.05% # Bytes accessed per row activation
system.mem_ctrl.bytesPerActivate::384-511           26      2.55%     55.60% # Bytes accessed per row activation
system.mem_ctrl.bytesPerActivate::512-639           55      5.40%     61.00% # Bytes accessed per row activation
system.mem_ctrl.bytesPerActivate::640-767           23      2.26%     63.26% # Bytes accessed per row activation
system.mem_ctrl.bytesPerActivate::768-895           29      2.85%     66.11% # Bytes accessed per row activation
system.mem_ctrl.bytesPerActivate::896-1023           17      1.67%     67.78% # Bytes accessed per row activation
system.mem_ctrl.bytesPerActivate::1024-1151          328     32.22%    100.00% # Bytes accessed per row activation
system.mem_ctrl.bytesPerActivate::total          1018                       # Bytes accessed per row activation
system.mem_ctrl.bytesReadDRAM                  535744                       # Total number of bytes read from DRAM
system.mem_ctrl.bytesReadWrQ                        0                       # Total number of bytes read from write queue
system.mem_ctrl.bytesWritten                        0                       # Total number of bytes written to DRAM
system.mem_ctrl.bytesReadSys                   535744                       # Total read bytes from the system interface side
system.mem_ctrl.bytesWrittenSys                   128                       # Total written bytes from the system interface side
system.mem_ctrl.avgRdBW                        149.65                       # Average DRAM read bandwidth in MiByte/s
system.mem_ctrl.avgWrBW                          0.00                       # Average achieved write bandwidth in MiByte/s
system.mem_ctrl.avgRdBWSys                     149.65                       # Average system read bandwidth in MiByte/s
system.mem_ctrl.avgWrBWSys                       0.04                       # Average system write bandwidth in MiByte/s
system.mem_ctrl.peakBW                       12800.00                       # Theoretical peak bandwidth in MiByte/s
system.mem_ctrl.busUtil                          1.17                       # Data bus utilization in percentage
system.mem_ctrl.busUtilRead                      1.17                       # Data bus utilization in percentage for reads
system.mem_ctrl.busUtilWrite                     0.00                       # Data bus utilization in percentage for writes
system.mem_ctrl.totGap                     3579886000                       # Total gap between requests
system.mem_ctrl.avgGap                      427551.18                       # Average gap between requests
system.mem_ctrl.masterReadBytes::.cpu.inst        36672                       # Per-master bytes read from memory
system.mem_ctrl.masterReadBytes::.cpu.data       499072                       # Per-master bytes read from memory
system.mem_ctrl.masterReadRate::.cpu.inst 10243575.418994413689                       # Per-master bytes read from memory rate (Bytes/sec)
system.mem_ctrl.masterReadRate::.cpu.data 139405586.592178761959                       # Per-master bytes read from memory rate (Bytes/sec)
system.mem_ctrl.masterReadAccesses::.cpu.inst          573                       # Per-master read serviced memory accesses
system.mem_ctrl.masterReadAccesses::.cpu.data         7798                       # Per-master read serviced memory accesses
system.mem_ctrl.masterWriteAccesses::.writebacks            2                       # Per-master write serviced memory accesses
system.mem_ctrl.masterReadTotalLat::.cpu.inst     14895750                       # Per-master read total memory access latency
system.mem_ctrl.masterReadTotalLat::.cpu.data    183958500                       # Per-master read total memory access latency
system.mem_ctrl.masterReadAvgLat::.cpu.inst     25996.07                       # Per-master read average memory access latency
system.mem_ctrl.masterReadAvgLat::.cpu.data     23590.47                       # Per-master read average memory access latency
system.mem_ctrl.masterWriteAvgLat::.writebacks         0.00                       # Per-master write average memory access latency
system.mem_ctrl.pageHitRate                     87.79                       # Row buffer hit rate, read and write combined
system.mem_ctrl.rank1.actEnergy               4541040                       # Energy for activate commands per rank (pJ)
system.mem_ctrl.rank1.preEnergy               2413620                       # Energy for precharge commands per rank (pJ)
system.mem_ctrl.rank1.readEnergy             32665500                       # Energy for read commands per rank (pJ)
system.mem_ctrl.rank1.writeEnergy                   0                       # Energy for write commands per rank (pJ)
system.mem_ctrl.rank1.refreshEnergy      282119760.000000                       # Energy for refresh commands per rank (pJ)
system.mem_ctrl.rank1.actBackEnergy        1180335480                       # Energy for active background per rank (pJ)
system.mem_ctrl.rank1.preBackEnergy         380753280                       # Energy for precharge background per rank (pJ)
system.mem_ctrl.rank1.actPowerDownEnergy            0                       # Energy for active power-down per rank (pJ)
system.mem_ctrl.rank1.prePowerDownEnergy            0                       # Energy for precharge power-down per rank (pJ)
system.mem_ctrl.rank1.selfRefreshEnergy             0                       # Energy for self refresh per rank (pJ)
system.mem_ctrl.rank1.totalEnergy          1882828680                       # Total energy per rank (pJ)
system.mem_ctrl.rank1.averagePower         525.929799                       # Core power per rank (mW)
system.mem_ctrl.rank1.totalIdleTime                 0                       # Total Idle time Per DRAM Rank
system.mem_ctrl.rank1.memoryStateTime::IDLE    978338000                       # Time in different power states
system.mem_ctrl.rank1.memoryStateTime::REF    119340000                       # Time in different power states
system.mem_ctrl.rank1.memoryStateTime::SREF            0                       # Time in different power states
system.mem_ctrl.rank1.memoryStateTime::PRE_PDN            0                       # Time in different power states
system.mem_ctrl.rank1.memoryStateTime::ACT   2482322000                       # Time in different power states
system.mem_ctrl.rank1.memoryStateTime::ACT_PDN            0                       # Time in different power states
system.mem_ctrl.rank0.actEnergy               2741760                       # Energy for activate commands per rank (pJ)
system.mem_ctrl.rank0.preEnergy               1449690                       # Energy for precharge commands per rank (pJ)
system.mem_ctrl.rank0.readEnergy             27103440                       # Energy for read commands per rank (pJ)
system.mem_ctrl.rank0.writeEnergy                   0                       # Energy for write commands per rank (pJ)
system.mem_ctrl.rank0.refreshEnergy      282119760.000000                       # Energy for refresh commands per rank (pJ)
system.mem_ctrl.rank0.actBackEnergy         346626690                       # Energy for active background per rank (pJ)
system.mem_ctrl.rank0.preBackEnergy        1082823840                       # Energy for precharge background per rank (pJ)
system.mem_ctrl.rank0.actPowerDownEnergy            0                       # Energy for active power-down per rank (pJ)
system.mem_ctrl.rank0.prePowerDownEnergy            0                       # Energy for precharge power-down per rank (pJ)
system.mem_ctrl.rank0.selfRefreshEnergy             0                       # Energy for self refresh per rank (pJ)
system.mem_ctrl.rank0.totalEnergy          1742865180                       # Total energy per rank (pJ)
system.mem_ctrl.rank0.averagePower         486.833849                       # Core power per rank (mW)
system.mem_ctrl.rank0.totalIdleTime                 0                       # Total Idle time Per DRAM Rank
system.mem_ctrl.rank0.memoryStateTime::IDLE   2810559250                       # Time in different power states
system.mem_ctrl.rank0.memoryStateTime::REF    119340000                       # Time in different power states
system.mem_ctrl.rank0.memoryStateTime::SREF            0                       # Time in different power states
system.mem_ctrl.rank0.memoryStateTime::PRE_PDN            0                       # Time in different power states
system.mem_ctrl.rank0.memoryStateTime::ACT    650100750                       # Time in different power states
system.mem_ctrl.rank0.memoryStateTime::ACT_PDN            0                       # Time in different power states
system.mem_ctrl.power_state.pwrStateResidencyTicks::UNDEFINED   3580000000                       # Cumulative time (in ticks) in various power states
system.cache_medium.blocked_cycles::no_mshrs            0                       # number of cycles access was blocked
system.cache_medium.blocked_cycles::no_targets            0                       # number of cycles access was blocked
system.cache_medium.blocked::no_mshrs               0                       # number of cycles access was blocked
system.cache_medium.blocked::no_targets             0                       # number of cycles access was blocked
system.cache_medium.avg_blocked_cycles::no_mshrs          nan                       # average number of cycles each access was blocked
system.cache_medium.avg_blocked_cycles::no_targets          nan                       # average number of cycles each access was blocked
system.cache_medium.replacements                    0                       # number of replacements
system.cache_medium.power_state.pwrStateResidencyTicks::UNDEFINED   3580000000                       # Cumulative time (in ticks) in various power states
system.cache_medium.tags.tagsinuse                  0                       # Cycle average of tags in use
system.cache_medium.tags.total_refs                 0                       # Total number of references to valid blocks.
system.cache_medium.tags.sampled_refs               0                       # Sample count of references to valid blocks.
system.cache_medium.tags.avg_refs                 nan                       # Average number of references to valid blocks.
system.cache_medium.tags.warmup_cycle               0                       # Cycle when the warmup percentage was hit.
system.cache_medium.tags.tag_accesses               0                       # Number of tag accesses
system.cache_medium.tags.data_accesses              0                       # Number of data accesses
system.cache_medium.tags.power_state.pwrStateResidencyTicks::UNDEFINED   3580000000                       # Cumulative time (in ticks) in various power states
system.clk_domain.clock                          1000                       # Clock period in ticks
system.clk_domain.voltage_domain.voltage            1                       # Voltage in Volts
system.dcache.demand_hits::.cpu.data           153687                       # number of demand (read+write) hits
system.dcache.demand_hits::total               153687                       # number of demand (read+write) hits
system.dcache.overall_hits::.cpu.data          153687                       # number of overall hits
system.dcache.overall_hits::total              153687                       # number of overall hits
system.dcache.demand_misses::.cpu.data           7827                       # number of demand (read+write) misses
system.dcache.demand_misses::total               7827                       # number of demand (read+write) misses
system.dcache.overall_misses::.cpu.data          7925                       # number of overall misses
system.dcache.overall_misses::total              7925                       # number of overall misses
system.dcache.demand_miss_latency::.cpu.data    570987000                       # number of demand (read+write) miss cycles
system.dcache.demand_miss_latency::total    570987000                       # number of demand (read+write) miss cycles
system.dcache.overall_miss_latency::.cpu.data    578307000                       # number of overall miss cycles
system.dcache.overall_miss_latency::total    578307000                       # number of overall miss cycles
system.dcache.demand_accesses::.cpu.data       161514                       # number of demand (read+write) accesses
system.dcache.demand_accesses::total           161514                       # number of demand (read+write) accesses
system.dcache.overall_accesses::.cpu.data       161612                       # number of overall (read+write) accesses
system.dcache.overall_accesses::total          161612                       # number of overall (read+write) accesses
system.dcache.demand_miss_rate::.cpu.data     0.048460                       # miss rate for demand accesses
system.dcache.demand_miss_rate::total        0.048460                       # miss rate for demand accesses
system.dcache.overall_miss_rate::.cpu.data     0.049037                       # miss rate for overall accesses
system.dcache.overall_miss_rate::total       0.049037                       # miss rate for overall accesses
system.dcache.demand_avg_miss_latency::.cpu.data 72950.939057                       # average overall miss latency
system.dcache.demand_avg_miss_latency::total 72950.939057                       # average overall miss latency
system.dcache.overall_avg_miss_latency::.cpu.data 72972.492114                       # average overall miss latency
system.dcache.overall_avg_miss_latency::total 72972.492114                       # average overall miss latency
system.dcache.blocked_cycles::no_mshrs              0                       # number of cycles access was blocked
system.dcache.blocked_cycles::no_targets            0                       # number of cycles access was blocked
system.dcache.blocked::no_mshrs                     0                       # number of cycles access was blocked
system.dcache.blocked::no_targets                   0                       # number of cycles access was blocked
system.dcache.avg_blocked_cycles::no_mshrs          nan                       # average number of cycles each access was blocked
system.dcache.avg_blocked_cycles::no_targets          nan                       # average number of cycles each access was blocked
system.dcache.writebacks::.writebacks            7484                       # number of writebacks
system.dcache.writebacks::total                  7484                       # number of writebacks
system.dcache.demand_mshr_misses::.cpu.data         7827                       # number of demand (read+write) MSHR misses
system.dcache.demand_mshr_misses::total          7827                       # number of demand (read+write) MSHR misses
system.dcache.overall_mshr_misses::.cpu.data         7925                       # number of overall MSHR misses
system.dcache.overall_mshr_misses::total         7925                       # number of overall MSHR misses
system.dcache.demand_mshr_miss_latency::.cpu.data    555335000                       # number of demand (read+write) MSHR miss cycles
system.dcache.demand_mshr_miss_latency::total    555335000                       # number of demand (read+write) MSHR miss cycles
system.dcache.overall_mshr_miss_latency::.cpu.data    562459000                       # number of overall MSHR miss cycles
system.dcache.overall_mshr_miss_latency::total    562459000                       # number of overall MSHR miss cycles
system.dcache.demand_mshr_miss_rate::.cpu.data     0.048460                       # mshr miss rate for demand accesses
system.dcache.demand_mshr_miss_rate::total     0.048460                       # mshr miss rate for demand accesses
system.dcache.overall_mshr_miss_rate::.cpu.data     0.049037                       # mshr miss rate for overall accesses
system.dcache.overall_mshr_miss_rate::total     0.049037                       # mshr miss rate for overall accesses
system.dcache.demand_avg_mshr_miss_latency::.cpu.data 70951.194583                       # average overall mshr miss latency
system.dcache.demand_avg_mshr_miss_latency::total 70951.194583                       # average overall mshr miss latency
system.dcache.overall_avg_mshr_miss_latency::.cpu.data 70972.744479                       # average overall mshr miss latency
system.dcache.overall_avg_mshr_miss_latency::total 70972.744479                       # average overall mshr miss latency
system.dcache.replacements                       7668                       # number of replacements
system.dcache.ReadReq_hits::.cpu.data           27813                       # number of ReadReq hits
system.dcache.ReadReq_hits::total               27813                       # number of ReadReq hits
system.dcache.ReadReq_misses::.cpu.data           227                       # number of ReadReq misses
system.dcache.ReadReq_misses::total               227                       # number of ReadReq misses
system.dcache.ReadReq_miss_latency::.cpu.data     11488000                       # number of ReadReq miss cycles
system.dcache.ReadReq_miss_latency::total     11488000                       # number of ReadReq miss cycles
system.dcache.ReadReq_accesses::.cpu.data        28040                       # number of ReadReq accesses(hits+misses)
system.dcache.ReadReq_accesses::total           28040                       # number of ReadReq accesses(hits+misses)
system.dcache.ReadReq_miss_rate::.cpu.data     0.008096                       # miss rate for ReadReq accesses
system.dcache.ReadReq_miss_rate::total       0.008096                       # miss rate for ReadReq accesses
system.dcache.ReadReq_avg_miss_latency::.cpu.data 50607.929515                       # average ReadReq miss latency
[...]
system.dcache.tags.occ_percent::total        0.998744                       # Average percentage of cache occupancy
system.dcache.tags.occ_task_id_blocks::1024          256                       # Occupied blocks per task id
system.dcache.tags.age_task_id_blocks_1024::0           89                       # Occupied blocks per task id
system.dcache.tags.age_task_id_blocks_1024::1          167                       # Occupied blocks per task id
system.dcache.tags.occ_task_id_percent::1024            1                       # Percentage of cache occupancy per task id
system.dcache.tags.tag_accesses               7883822                       # Number of tag accesses
system.dcache.tags.data_accesses              7883822                       # Number of data accesses
system.dcache.tags.power_state.pwrStateResidencyTicks::UNDEFINED 100356446000                       # Cumulative time (in ticks) in various power states
system.cache_large.blocked_cycles::no_mshrs            0                       # number of cycles access was blocked
system.cache_large.blocked_cycles::no_targets            0                       # number of cycles access was blocked
system.cache_large.blocked::no_mshrs                0                       # number of cycles access was blocked
system.cache_large.blocked::no_targets              0                       # number of cycles access was blocked
system.cache_large.avg_blocked_cycles::no_mshrs          nan                       # average number of cycles each access was blocked
system.cache_large.avg_blocked_cycles::no_targets          nan                       # average number of cycles each access was blocked
system.cache_large.replacements                     0                       # number of replacements
system.cache_large.power_state.pwrStateResidencyTicks::UNDEFINED 100356446000                       # Cumulative time (in ticks) in various power states
system.cache_large.tags.tagsinuse                   0                       # Cycle average of tags in use
system.cache_large.tags.total_refs                  0                       # Total number of references to valid blocks.
system.cache_large.tags.sampled_refs                0                       # Sample count of references to valid blocks.
system.cache_large.tags.avg_refs                  nan                       # Average number of references to valid blocks.
system.cache_large.tags.warmup_cycle                0                       # Cycle when the warmup percentage was hit.
system.cache_large.tags.tag_accesses                0                       # Number of tag accesses
system.cache_large.tags.data_accesses               0                       # Number of data accesses
system.cache_large.tags.power_state.pwrStateResidencyTicks::UNDEFINED 100356446000                       # Cumulative time (in ticks) in various power states
system.l2cache.demand_hits::.cpu.inst              12                       # number of demand (read+write) hits
system.l2cache.demand_hits::.cpu.data              34                       # number of demand (read+write) hits
system.l2cache.demand_hits::total                  46                       # number of demand (read+write) hits
system.l2cache.overall_hits::.cpu.inst             12                       # number of overall hits
system.l2cache.overall_hits::.cpu.data             34                       # number of overall hits
system.l2cache.overall_hits::total                 46                       # number of overall hits
system.l2cache.demand_misses::.cpu.inst           741                       # number of demand (read+write) misses
system.l2cache.demand_misses::.cpu.data        865033                       # number of demand (read+write) misses
system.l2cache.demand_misses::total            865774                       # number of demand (read+write) misses
system.l2cache.overall_misses::.cpu.inst          741                       # number of overall misses
system.l2cache.overall_misses::.cpu.data       865033                       # number of overall misses
system.l2cache.overall_misses::total           865774                       # number of overall misses
system.l2cache.demand_miss_latency::.cpu.inst     42477000                       # number of demand (read+write) miss cycles
system.l2cache.demand_miss_latency::.cpu.data  62994396000                       # number of demand (read+write) miss cycles
system.l2cache.demand_miss_latency::total  63036873000                       # number of demand (read+write) miss cycles
system.l2cache.overall_miss_latency::.cpu.inst     42477000                       # number of overall miss cycles
system.l2cache.overall_miss_latency::.cpu.data  62994396000                       # number of overall miss cycles
system.l2cache.overall_miss_latency::total  63036873000                       # number of overall miss cycles
system.l2cache.demand_accesses::.cpu.inst          753                       # number of demand (read+write) accesses
system.l2cache.demand_accesses::.cpu.data       865067                       # number of demand (read+write) accesses
system.l2cache.demand_accesses::total          865820                       # number of demand (read+write) accesses
system.l2cache.overall_accesses::.cpu.inst          753                       # number of overall (read+write) accesses
system.l2cache.overall_accesses::.cpu.data       865067                       # number of overall (read+write) accesses
system.l2cache.overall_accesses::total         865820                       # number of overall (read+write) accesses
system.l2cache.demand_miss_rate::.cpu.inst     0.984064                       # miss rate for demand accesses
system.l2cache.demand_miss_rate::.cpu.data     0.999961                       # miss rate for demand accesses
system.l2cache.demand_miss_rate::total       0.999947                       # miss rate for demand accesses
system.l2cache.overall_miss_rate::.cpu.inst     0.984064                       # miss rate for overall accesses
system.l2cache.overall_miss_rate::.cpu.data     0.999961                       # miss rate for overall accesses
system.l2cache.overall_miss_rate::total      0.999947                       # miss rate for overall accesses
system.l2cache.demand_avg_miss_latency::.cpu.inst 57323.886640                       # average overall miss latency
system.l2cache.demand_avg_miss_latency::.cpu.data 72823.113107                       # average overall miss latency
system.l2cache.demand_avg_miss_latency::total 72809.847605                       # average overall miss latency
system.l2cache.overall_avg_miss_latency::.cpu.inst 57323.886640                       # average overall miss latency
system.l2cache.overall_avg_miss_latency::.cpu.data 72823.113107                       # average overall miss latency
system.l2cache.overall_avg_miss_latency::total 72809.847605                       # average overall miss latency
system.l2cache.blocked_cycles::no_mshrs             0                       # number of cycles access was blocked
system.l2cache.blocked_cycles::no_targets            0                       # number of cycles access was blocked
system.l2cache.blocked::no_mshrs                    0                       # number of cycles access was blocked
system.l2cache.blocked::no_targets                  0                       # number of cycles access was blocked
system.l2cache.avg_blocked_cycles::no_mshrs          nan                       # average number of cycles each access was blocked
system.l2cache.avg_blocked_cycles::no_targets          nan                       # average number of cycles each access was blocked
system.l2cache.writebacks::.writebacks         864368                       # number of writebacks
system.l2cache.writebacks::total               864368                       # number of writebacks
system.l2cache.demand_mshr_misses::.cpu.inst          741                       # number of demand (read+write) MSHR misses
system.l2cache.demand_mshr_misses::.cpu.data       865033                       # number of demand (read+write) MSHR misses
system.l2cache.demand_mshr_misses::total       865774                       # number of demand (read+write) MSHR misses
system.l2cache.overall_mshr_misses::.cpu.inst          741                       # number of overall MSHR misses
system.l2cache.overall_mshr_misses::.cpu.data       865033                       # number of overall MSHR misses
system.l2cache.overall_mshr_misses::total       865774                       # number of overall MSHR misses
system.l2cache.demand_mshr_miss_latency::.cpu.inst     40995000                       # number of demand (read+write) MSHR miss cycles
system.l2cache.demand_mshr_miss_latency::.cpu.data  61264330000                       # number of demand (read+write) MSHR miss cycles
system.l2cache.demand_mshr_miss_latency::total  61305325000                       # number of demand (read+write) MSHR miss cycles
system.l2cache.overall_mshr_miss_latency::.cpu.inst     40995000                       # number of overall MSHR miss cycles
system.l2cache.overall_mshr_miss_latency::.cpu.data  61264330000                       # number of overall MSHR miss cycles
system.l2cache.overall_mshr_miss_latency::total  61305325000                       # number of overall MSHR miss cycles
system.l2cache.demand_mshr_miss_rate::.cpu.inst     0.984064                       # mshr miss rate for demand accesses
system.l2cache.demand_mshr_miss_rate::.cpu.data     0.999961                       # mshr miss rate for demand accesses
system.l2cache.demand_mshr_miss_rate::total     0.999947                       # mshr miss rate for demand accesses
system.l2cache.overall_mshr_miss_rate::.cpu.inst     0.984064                       # mshr miss rate for overall accesses
system.l2cache.overall_mshr_miss_rate::.cpu.data     0.999961                       # mshr miss rate for overall accesses
system.l2cache.overall_mshr_miss_rate::total     0.999947                       # mshr miss rate for overall accesses
system.l2cache.demand_avg_mshr_miss_latency::.cpu.inst 55323.886640                       # average overall mshr miss latency
system.l2cache.demand_avg_mshr_miss_latency::.cpu.data 70823.113107                       # average overall mshr miss latency
system.l2cache.demand_avg_mshr_miss_latency::total 70809.847605                       # average overall mshr miss latency
system.l2cache.overall_avg_mshr_miss_latency::.cpu.inst 55323.886640                       # average overall mshr miss latency
system.l2cache.overall_avg_mshr_miss_latency::.cpu.data 70823.113107                       # average overall mshr miss latency
system.l2cache.overall_avg_mshr_miss_latency::total 70809.847605                       # average overall mshr miss latency
system.l2cache.replacements                    866090                       # number of replacements
system.l2cache.ReadReq_hits::.cpu.inst             12                       # number of ReadReq hits
system.l2cache.ReadReq_hits::.cpu.data             34                       # number of ReadReq hits
system.l2cache.ReadReq_hits::total                 46                       # number of ReadReq hits
system.l2cache.ReadReq_misses::.cpu.inst          741                       # number of ReadReq misses
system.l2cache.ReadReq_misses::.cpu.data       865033                       # number of ReadReq misses
system.l2cache.ReadReq_misses::total           865774                       # number of ReadReq misses
system.l2cache.ReadReq_miss_latency::.cpu.inst     42477000                       # number of ReadReq miss cycles
system.l2cache.ReadReq_miss_latency::.cpu.data  62994396000                       # number of ReadReq miss cycles
system.l2cache.ReadReq_miss_latency::total  63036873000                       # number of ReadReq miss cycles
system.l2cache.ReadReq_accesses::.cpu.inst          753                       # number of ReadReq accesses(hits+misses)
system.l2cache.ReadReq_accesses::.cpu.data       865067                       # number of ReadReq accesses(hits+misses)
system.l2cache.ReadReq_accesses::total         865820                       # number of ReadReq accesses(hits+misses)
system.l2cache.ReadReq_miss_rate::.cpu.inst     0.984064                       # miss rate for ReadReq accesses
system.l2cache.ReadReq_miss_rate::.cpu.data     0.999961                       # miss rate for ReadReq accesses
system.l2cache.ReadReq_miss_rate::total      0.999947                       # miss rate for ReadReq accesses
system.l2cache.ReadReq_avg_miss_latency::.cpu.inst 57323.886640                       # average ReadReq miss latency
system.l2cache.ReadReq_avg_miss_latency::.cpu.data 72823.113107                       # average ReadReq miss latency
system.l2cache.ReadReq_avg_miss_latency::total 72809.847605                       # average ReadReq miss latency
system.l2cache.ReadReq_mshr_misses::.cpu.inst          741                       # number of ReadReq MSHR misses
system.l2cache.ReadReq_mshr_misses::.cpu.data       865033                       # number of ReadReq MSHR misses
system.l2cache.ReadReq_mshr_misses::total       865774                       # number of ReadReq MSHR misses
system.l2cache.ReadReq_mshr_miss_latency::.cpu.inst     40995000                       # number of ReadReq MSHR miss cycles
system.l2cache.ReadReq_mshr_miss_latency::.cpu.data  61264330000                       # number of ReadReq MSHR miss cycles
system.l2cache.ReadReq_mshr_miss_latency::total  61305325000                       # number of ReadReq MSHR miss cycles
system.l2cache.ReadReq_mshr_miss_rate::.cpu.inst     0.984064                       # mshr miss rate for ReadReq accesses
system.l2cache.ReadReq_mshr_miss_rate::.cpu.data     0.999961                       # mshr miss rate for ReadReq accesses
system.l2cache.ReadReq_mshr_miss_rate::total     0.999947                       # mshr miss rate for ReadReq accesses
system.l2cache.ReadReq_avg_mshr_miss_latency::.cpu.inst 55323.886640                       # average ReadReq mshr miss latency
system.l2cache.ReadReq_avg_mshr_miss_latency::.cpu.data 70823.113107                       # average ReadReq mshr miss latency
system.l2cache.ReadReq_avg_mshr_miss_latency::total 70809.847605                       # average ReadReq mshr miss latency
system.l2cache.WritebackDirty_hits::.writebacks       864627                       # number of WritebackDirty hits
system.l2cache.WritebackDirty_hits::total       864627                       # number of WritebackDirty hits
system.l2cache.WritebackDirty_accesses::.writebacks       864627                       # number of WritebackDirty accesses(hits+misses)
system.l2cache.WritebackDirty_accesses::total       864627                       # number of WritebackDirty accesses(hits+misses)
system.l2cache.power_state.pwrStateResidencyTicks::UNDEFINED 100356446000                       # Cumulative time (in ticks) in various power states
system.l2cache.tags.tagsinuse              510.997011                       # Cycle average of tags in use
system.l2cache.tags.total_refs                1730447                       # Total number of references to valid blocks.
system.l2cache.tags.sampled_refs               866602                       # Sample count of references to valid blocks.
system.l2cache.tags.avg_refs                 1.996819                       # Average number of references to valid blocks.
system.l2cache.tags.warmup_cycle                78000                       # Cycle when the warmup percentage was hit.
system.l2cache.tags.occ_blocks::.writebacks     1.806553                       # Average occupied blocks per requestor
system.l2cache.tags.occ_blocks::.cpu.inst     1.730864                       # Average occupied blocks per requestor
system.l2cache.tags.occ_blocks::.cpu.data   507.459593                       # Average occupied blocks per requestor
system.l2cache.tags.occ_percent::.writebacks     0.003528                       # Average percentage of cache occupancy
system.l2cache.tags.occ_percent::.cpu.inst     0.003381                       # Average percentage of cache occupancy
system.l2cache.tags.occ_percent::.cpu.data     0.991132                       # Average percentage of cache occupancy
system.l2cache.tags.occ_percent::total       0.998041                       # Average percentage of cache occupancy
system.l2cache.tags.occ_task_id_blocks::1024          512                       # Occupied blocks per task id
system.l2cache.tags.age_task_id_blocks_1024::0           89                       # Occupied blocks per task id
system.l2cache.tags.age_task_id_blocks_1024::1          423                       # Occupied blocks per task id
system.l2cache.tags.occ_task_id_percent::1024            1                       # Percentage of cache occupancy per task id
system.l2cache.tags.tag_accesses              2597049                       # Number of tag accesses
system.l2cache.tags.data_accesses             2597049                       # Number of data accesses
system.l2cache.tags.power_state.pwrStateResidencyTicks::UNDEFINED 100356446000                       # Cumulative time (in ticks) in various power states
system.l2bar.trans_dist::ReadReq               865820                       # Transaction distribution
system.l2bar.trans_dist::ReadResp              865820                       # Transaction distribution
system.l2bar.trans_dist::WritebackDirty        864627                       # Transaction distribution
system.l2bar.pkt_count_system.dcache.mem_side::system.l2cache.cpu_side      2594761                       # Packet count per connected master and slave (bytes)
system.l2bar.pkt_count_system.icache.mem_side::system.l2cache.cpu_side         1506                       # Packet count per connected master and slave (bytes)
system.l2bar.pkt_count::total                 2596267                       # Packet count per connected master and slave (bytes)
system.l2bar.pkt_size_system.dcache.mem_side::system.l2cache.cpu_side    110700416                       # Cumulative packet size per connected master and slave (bytes)
system.l2bar.pkt_size_system.icache.mem_side::system.l2cache.cpu_side        48192                       # Cumulative packet size per connected master and slave (bytes)
system.l2bar.pkt_size::total                110748608                       # Cumulative packet size per connected master and slave (bytes)
system.l2bar.respLayer1.occupancy             3765000                       # Layer occupancy (ticks)
system.l2bar.respLayer1.utilization               0.0                       # Layer utilization (%)
system.l2bar.reqLayer0.occupancy           5188955000                       # Layer occupancy (ticks)
system.l2bar.reqLayer0.utilization                5.2                       # Layer utilization (%)
system.l2bar.respLayer0.occupancy          4325335000                       # Layer occupancy (ticks)
system.l2bar.respLayer0.utilization               4.3                       # Layer utilization (%)
system.l2bar.power_state.pwrStateResidencyTicks::UNDEFINED 100356446000                       # Cumulative time (in ticks) in various power states
system.cpu.dtb.walker.power_state.pwrStateResidencyTicks::UNDEFINED 100356446000                       # Cumulative time (in ticks) in various power states
system.cpu.interrupts.clk_domain.clock          16000                       # Clock period in ticks
system.cpu.itb.walker.power_state.pwrStateResidencyTicks::UNDEFINED 100356446000                       # Cumulative time (in ticks) in various power states
system.cpu.power_state.numTransitions               1                       # Number of power state transitions
system.cpu.power_state.pwrStateResidencyTicks::ON 100356446000                       # Cumulative time (in ticks) in various power states

---------- End Simulation Statistics   ----------
