
---------- Begin Simulation Statistics ----------
final_tick                                 6534715000                       # Number of ticks from beginning of simulation (restored from checkpoints and never reset)
host_inst_rate                                 246977                       # Simulator instruction rate (inst/s)
host_mem_usage                                1293892                       # Number of bytes of host memory used
host_op_rate                                   412051                       # Simulator op (including micro ops) rate (op/s)
host_seconds                                     4.05                       # Real time elapsed on the host
host_tick_rate                             1613746740                       # Simulator tick rate (ticks/s)
sim_freq                                 1000000000000                       # Frequency of simulated ticks
sim_insts                                     1000050                       # Number of instructions simulated
sim_ops                                       1668544                       # Number of ops (including micro ops) simulated
sim_seconds                                  0.006535                       # Number of seconds simulated
sim_ticks                                  6534715000                       # Number of ticks simulated
system.cpu.Branches                            148314                       # Number of branches fetched
system.cpu.committedInsts                     1000050                       # Number of instructions committed
system.cpu.committedOps                       1668544                       # Number of ops (including micro ops) committed
system.cpu.dtb.rdAccesses                      161924                       # TLB accesses on read requests
system.cpu.dtb.rdMisses                            44                       # TLB misses on read requests
system.cpu.dtb.wrAccesses                      367258                       # TLB accesses on write requests
system.cpu.dtb.wrMisses                          1070                       # TLB misses on write requests
system.cpu.idle_fraction                            0                       # Percentage of idle cycles
system.cpu.itb.rdAccesses                           0                       # TLB accesses on read requests
system.cpu.itb.rdMisses                             0                       # TLB misses on read requests
system.cpu.itb.wrAccesses                     1335853                       # TLB accesses on write requests
system.cpu.itb.wrMisses                            84                       # TLB misses on write requests
system.cpu.not_idle_fraction                        1                       # Percentage of non-idle cycles
system.cpu.numCycles                          6534704                       # number of cpu cycles simulated
system.cpu.numWorkItemsCompleted                    0                       # number of work items this cpu completed
system.cpu.numWorkItemsStarted                      0                       # number of work items this cpu started
system.cpu.num_busy_cycles                    6534704                       # Number of busy cycles
system.cpu.num_cc_register_reads               897152                       # number of times the CC registers were read
system.cpu.num_cc_register_writes              778518                       # number of times the CC registers were written
system.cpu.num_conditional_control_insts       111281                       # number of instructions that are conditional controls
system.cpu.num_fp_alu_accesses                 271916                       # Number of float alu accesses
system.cpu.num_fp_insts                        271916                       # number of float instructions
system.cpu.num_fp_register_reads               268592                       # number of times the floating registers were read
system.cpu.num_fp_register_writes                7053                       # number of times the floating registers were written
system.cpu.num_func_calls                       32285                       # number of times a function call or return occured
system.cpu.num_idle_cycles                          0                       # Number of idle cycles
system.cpu.num_int_alu_accesses               1663090                       # Number of integer alu accesses
system.cpu.num_int_insts                      1663090                       # number of integer instructions
system.cpu.num_int_register_reads             3550379                       # number of times the integer registers were read
system.cpu.num_int_register_writes            1145575                       # number of times the integer registers were written
system.cpu.num_load_insts                      161898                       # Number of load instructions
system.cpu.num_mem_refs                        529154                       # number of memory refs
system.cpu.num_store_insts                     367256                       # Number of store instructions
system.cpu.num_vec_alu_accesses                     0                       # Number of vector alu accesses
system.cpu.num_vec_insts                            0                       # number of vector instructions
system.cpu.num_vec_register_reads                   0                       # number of times the vector registers were read
system.cpu.num_vec_register_writes                  0                       # number of times the vector registers were written
system.cpu.op_class::No_OpClass                   924      0.06%      0.06% # Class of executed instruction
system.cpu.op_class::IntAlu                   1133677     67.92%     67.98% # Class of executed instruction
system.cpu.op_class::IntMult                       10      0.00%     67.98% # Class of executed instruction
system.cpu.op_class::IntDiv                        21      0.00%     67.98% # Class of executed instruction
system.cpu.op_class::FloatAdd                    3232      0.19%     68.17% # Class of executed instruction
system.cpu.op_class::FloatCmp                       0      0.00%     68.17% # Class of executed instruction
system.cpu.op_class::FloatCvt                       0      0.00%     68.17% # Class of executed instruction
system.cpu.op_class::FloatMult                      0      0.00%     68.17% # Class of executed instruction
system.cpu.op_class::FloatMultAcc                   0      0.00%     68.17% # Class of executed instruction
system.cpu.op_class::FloatDiv                       0      0.00%     68.17% # Class of executed instruction
system.cpu.op_class::FloatMisc                      0      0.00%     68.17% # Class of executed instruction
system.cpu.op_class::FloatSqrt                      0      0.00%     68.17% # Class of executed instruction
system.cpu.op_class::SimdAdd                       16      0.00%     68.17% # Class of executed instruction
system.cpu.op_class::SimdAddAcc                     0      0.00%     68.17% # Class of executed instruction
system.cpu.op_class::SimdAlu                      842      0.05%     68.22% # Class of executed instruction
system.cpu.op_class::SimdCmp                        0      0.00%     68.22% # Class of executed instruction
system.cpu.op_class::SimdCvt                      302      0.02%     68.24% # Class of executed instruction
system.cpu.op_class::SimdMisc                     483      0.03%     68.27% # Class of executed instruction
system.cpu.op_class::SimdMult                       0      0.00%     68.27% # Class of executed instruction
system.cpu.op_class::SimdMultAcc                    0      0.00%     68.27% # Class of executed instruction
system.cpu.op_class::SimdShift                      0      0.00%     68.27% # Class of executed instruction
system.cpu.op_class::SimdShiftAcc                   0      0.00%     68.27% # Class of executed instruction
system.cpu.op_class::SimdDiv                        0      0.00%     68.27% # Class of executed instruction
system.cpu.op_class::SimdSqrt                       0      0.00%     68.27% # Class of executed instruction
system.cpu.op_class::SimdFloatAdd                   0      0.00%     68.27% # Class of executed instruction
system.cpu.op_class::SimdFloatAlu                   0      0.00%     68.27% # Class of executed instruction
system.cpu.op_class::SimdFloatCmp                   0      0.00%     68.27% # Class of executed instruction
system.cpu.op_class::SimdFloatCvt                 274      0.02%     68.29% # Class of executed instruction
system.cpu.op_class::SimdFloatDiv                   0      0.00%     68.29% # Class of executed instruction
system.cpu.op_class::SimdFloatMisc                  0      0.00%     68.29% # Class of executed instruction
system.cpu.op_class::SimdFloatMult                137      0.01%     68.30% # Class of executed instruction
system.cpu.op_class::SimdFloatMultAcc               0      0.00%     68.30% # Class of executed instruction
system.cpu.op_class::SimdFloatSqrt                  0      0.00%     68.30% # Class of executed instruction
system.cpu.op_class::SimdReduceAdd                  0      0.00%     68.30% # Class of executed instruction
system.cpu.op_class::SimdReduceAlu                  0      0.00%     68.30% # Class of executed instruction
system.cpu.op_class::SimdReduceCmp                  0      0.00%     68.30% # Class of executed instruction
system.cpu.op_class::SimdFloatReduceAdd             0      0.00%     68.30% # Class of executed instruction
system.cpu.op_class::SimdFloatReduceCmp             0      0.00%     68.30% # Class of executed instruction
system.cpu.op_class::SimdAes                        0      0.00%     68.30% # Class of executed instruction
system.cpu.op_class::SimdAesMix                     0      0.00%     68.30% # Class of executed instruction
system.cpu.op_class::SimdSha1Hash                   0      0.00%     68.30% # Class of executed instruction
system.cpu.op_class::SimdSha1Hash2                  0      0.00%     68.30% # Class of executed instruction
system.cpu.op_class::SimdSha256Hash                 0      0.00%     68.30% # Class of executed instruction
system.cpu.op_class::SimdSha256Hash2                0      0.00%     68.30% # Class of executed instruction
system.cpu.op_class::SimdShaSigma2                  0      0.00%     68.30% # Class of executed instruction
system.cpu.op_class::SimdShaSigma3                  0      0.00%     68.30% # Class of executed instruction
system.cpu.op_class::SimdPredAlu                    0      0.00%     68.30% # Class of executed instruction
system.cpu.op_class::MemRead                   159718      9.57%     77.87% # Class of executed instruction
system.cpu.op_class::MemWrite                  102820      6.16%     84.03% # Class of executed instruction
system.cpu.op_class::FloatMemRead                2180      0.13%     84.16% # Class of executed instruction
system.cpu.op_class::FloatMemWrite             264436     15.84%    100.00% # Class of executed instruction
system.cpu.op_class::IprAccess                      0      0.00%    100.00% # Class of executed instruction
system.cpu.op_class::InstPrefetch                   0      0.00%    100.00% # Class of executed instruction
system.cpu.op_class::total                    1669072                       # Class of executed instruction
system.cpu.workload.numSyscalls                    10                       # Number of system calls
system.dynamic_cache.flushTicks                     0                       # Ticks taken to flush
system.dynamic_cache.numFlushes                     0                       # Number of Flushes Taken
system.cache_small.blocked_cycles::no_mshrs            0                       # number of cycles access was blocked
system.cache_small.blocked_cycles::no_targets            0                       # number of cycles access was blocked
system.cache_small.blocked::no_mshrs                0                       # number of cycles access was blocked
system.cache_small.blocked::no_targets              0                       # number of cycles access was blocked
system.cache_small.avg_blocked_cycles::no_mshrs          nan                       # average number of cycles each access was blocked
system.cache_small.avg_blocked_cycles::no_targets          nan                       # average number of cycles each access was blocked
system.cache_small.replacements                     0                       # number of replacements
system.cache_small.power_state.pwrStateResidencyTicks::UNDEFINED   6534715000                       # Cumulative time (in ticks) in various power states
system.cache_small.tags.tagsinuse                   0                       # Cycle average of tags in use
system.cache_small.tags.total_refs                  0                       # Total number of references to valid blocks.
system.cache_small.tags.sampled_refs                0                       # Sample count of references to valid blocks.
system.cache_small.tags.avg_refs                  nan                       # Average number of references to valid blocks.
system.cache_small.tags.warmup_cycle                0                       # Cycle when the warmup percentage was hit.
system.cache_small.tags.tag_accesses                0                       # Number of tag accesses
system.cache_small.tags.data_accesses               0                       # Number of data accesses
system.cache_small.tags.power_state.pwrStateResidencyTicks::UNDEFINED   6534715000                       # Cumulative time (in ticks) in various power states
system.icache.demand_hits::.cpu.inst          1330368                       # number of demand (read+write) hits
system.icache.demand_hits::total              1330368                       # number of demand (read+write) hits
system.icache.overall_hits::.cpu.inst         1330368                       # number of overall hits
system.icache.overall_hits::total             1330368                       # number of overall hits
system.icache.demand_misses::.cpu.inst           5485                       # number of demand (read+write) misses
system.icache.demand_misses::total               5485                       # number of demand (read+write) misses
system.icache.overall_misses::.cpu.inst          5485                       # number of overall misses
system.icache.overall_misses::total              5485                       # number of overall misses
system.icache.demand_miss_latency::.cpu.inst    210482000                       # number of demand (read+write) miss cycles
system.icache.demand_miss_latency::total    210482000                       # number of demand (read+write) miss cycles
system.icache.overall_miss_latency::.cpu.inst    210482000                       # number of overall miss cycles
system.icache.overall_miss_latency::total    210482000                       # number of overall miss cycles
system.icache.demand_accesses::.cpu.inst      1335853                       # number of demand (read+write) accesses
system.icache.demand_accesses::total          1335853                       # number of demand (read+write) accesses
system.icache.overall_accesses::.cpu.inst      1335853                       # number of overall (read+write) accesses
system.icache.overall_accesses::total         1335853                       # number of overall (read+write) accesses
system.icache.demand_miss_rate::.cpu.inst     0.004106                       # miss rate for demand accesses
system.icache.demand_miss_rate::total        0.004106                       # miss rate for demand accesses
system.icache.overall_miss_rate::.cpu.inst     0.004106                       # miss rate for overall accesses
system.icache.overall_miss_rate::total       0.004106                       # miss rate for overall accesses
system.icache.demand_avg_miss_latency::.cpu.inst 38374.111212                       # average overall miss latency
system.icache.demand_avg_miss_latency::total 38374.111212                       # average overall miss latency
system.icache.overall_avg_miss_latency::.cpu.inst 38374.111212                       # average overall miss latency
system.icache.overall_avg_miss_latency::total 38374.111212                       # average overall miss latency
system.icache.blocked_cycles::no_mshrs              0                       # number of cycles access was blocked
system.icache.blocked_cycles::no_targets            0                       # number of cycles access was blocked
system.icache.blocked::no_mshrs                     0                       # number of cycles access was blocked
system.icache.blocked::no_targets                   0                       # number of cycles access was blocked
system.icache.avg_blocked_cycles::no_mshrs          nan                       # average number of cycles each access was blocked
system.icache.avg_blocked_cycles::no_targets          nan                       # average number of cycles each access was blocked
system.icache.demand_mshr_misses::.cpu.inst         5485                       # number of demand (read+write) MSHR misses
system.icache.demand_mshr_misses::total          5485                       # number of demand (read+write) MSHR misses
system.icache.overall_mshr_misses::.cpu.inst         5485                       # number of overall MSHR misses
system.icache.overall_mshr_misses::total         5485                       # number of overall MSHR misses
system.icache.demand_mshr_miss_latency::.cpu.inst    199512000                       # number of demand (read+write) MSHR miss cycles
system.icache.demand_mshr_miss_latency::total    199512000                       # number of demand (read+write) MSHR miss cycles
system.icache.overall_mshr_miss_latency::.cpu.inst    199512000                       # number of overall MSHR miss cycles
system.icache.overall_mshr_miss_latency::total    199512000                       # number of overall MSHR miss cycles
system.icache.demand_mshr_miss_rate::.cpu.inst     0.004106                       # mshr miss rate for demand accesses
system.icache.demand_mshr_miss_rate::total     0.004106                       # mshr miss rate for demand accesses
system.icache.overall_mshr_miss_rate::.cpu.inst     0.004106                       # mshr miss rate for overall accesses
system.icache.overall_mshr_miss_rate::total     0.004106                       # mshr miss rate for overall accesses
system.icache.demand_avg_mshr_miss_latency::.cpu.inst 36374.111212                       # average overall mshr miss latency
system.icache.demand_avg_mshr_miss_latency::total 36374.111212                       # average overall mshr miss latency
system.icache.overall_avg_mshr_miss_latency::.cpu.inst 36374.111212                       # average overall mshr miss latency
system.icache.overall_avg_mshr_miss_latency::total 36374.111212                       # average overall mshr miss latency
system.icache.replacements                       5251                       # number of replacements
system.icache.ReadReq_hits::.cpu.inst         1330368                       # number of ReadReq hits
system.icache.ReadReq_hits::total             1330368                       # number of ReadReq hits
system.icache.ReadReq_misses::.cpu.inst          5485                       # number of ReadReq misses
system.icache.ReadReq_misses::total              5485                       # number of ReadReq misses
system.icache.ReadReq_miss_latency::.cpu.inst    210482000                       # number of ReadReq miss cycles
system.icache.ReadReq_miss_latency::total    210482000                       # number of ReadReq miss cycles
system.icache.ReadReq_accesses::.cpu.inst      1335853                       # number of ReadReq accesses(hits+misses)
system.icache.ReadReq_accesses::total         1335853                       # number of ReadReq accesses(hits+misses)
system.icache.ReadReq_miss_rate::.cpu.inst     0.004106                       # miss rate for ReadReq accesses
system.icache.ReadReq_miss_rate::total       0.004106                       # miss rate for ReadReq accesses
system.icache.ReadReq_avg_miss_latency::.cpu.inst 38374.111212                       # average ReadReq miss latency
system.icache.ReadReq_avg_miss_latency::total 38374.111212                       # average ReadReq miss latency
system.icache.ReadReq_mshr_misses::.cpu.inst         5485                       # number of ReadReq MSHR misses
system.icache.ReadReq_mshr_misses::total         5485                       # number of ReadReq MSHR misses
system.icache.ReadReq_mshr_miss_latency::.cpu.inst    199512000                       # number of ReadReq MSHR miss cycles
system.icache.ReadReq_mshr_miss_latency::total    199512000                       # number of ReadReq MSHR miss cycles
system.icache.ReadReq_mshr_miss_rate::.cpu.inst     0.004106                       # mshr miss rate for ReadReq accesses
system.icache.ReadReq_mshr_miss_rate::total     0.004106                       # mshr miss rate for ReadReq accesses
system.icache.ReadReq_avg_mshr_miss_latency::.cpu.inst 36374.111212                       # average ReadReq mshr miss latency
system.icache.ReadReq_avg_mshr_miss_latency::total 36374.111212                       # average ReadReq mshr miss latency
system.icache.power_state.pwrStateResidencyTicks::UNDEFINED   6534715000                       # Cumulative time (in ticks) in various power states
system.icache.tags.tagsinuse               231.319997                       # Cycle average of tags in use
system.icache.tags.total_refs                  255412                       # Total number of references to valid blocks.
system.icache.tags.sampled_refs                  5251                       # Sample count of references to valid blocks.
system.icache.tags.avg_refs                 48.640640                       # Average number of references to valid blocks.
system.icache.tags.warmup_cycle                 80000                       # Cycle when the warmup percentage was hit.
system.icache.tags.occ_blocks::.cpu.inst   231.319997                       # Average occupied blocks per requestor
system.icache.tags.occ_percent::.cpu.inst     0.903594                       # Average percentage of cache occupancy
system.icache.tags.occ_percent::total        0.903594                       # Average percentage of cache occupancy
system.icache.tags.occ_task_id_blocks::1024          234                       # Occupied blocks per task id
system.icache.tags.age_task_id_blocks_1024::0            2                       # Occupied blocks per task id
system.icache.tags.age_task_id_blocks_1024::2           24                       # Occupied blocks per task id
system.icache.tags.age_task_id_blocks_1024::3          208                       # Occupied blocks per task id
system.icache.tags.occ_task_id_percent::1024     0.914062                       # Percentage of cache occupancy per task id
system.icache.tags.tag_accesses               1341338                       # Number of tag accesses
system.icache.tags.data_accesses              1341338                       # Number of data accesses
system.icache.tags.power_state.pwrStateResidencyTicks::UNDEFINED   6534715000                       # Cumulative time (in ticks) in various power states
system.membus.trans_dist::ReadReq               37809                       # Transaction distribution
system.membus.trans_dist::ReadResp              37809                       # Transaction distribution
system.membus.trans_dist::WritebackDirty        34505                       # Transaction distribution
system.membus.pkt_count_system.dynamic_cache.mem_side::system.mem_ctrl.port       110123                       # Packet count per connected master and slave (bytes)
system.membus.pkt_count_system.dynamic_cache.mem_side::total       110123                       # Packet count per connected master and slave (bytes)
system.membus.pkt_count::total                 110123                       # Packet count per connected master and slave (bytes)
system.membus.pkt_size_system.dynamic_cache.mem_side::system.mem_ctrl.port      4628096                       # Cumulative packet size per connected master and slave (bytes)
system.membus.pkt_size_system.dynamic_cache.mem_side::total      4628096                       # Cumulative packet size per connected master and slave (bytes)
system.membus.pkt_size::total                 4628096                       # Cumulative packet size per connected master and slave (bytes)
system.membus.reqLayer2.occupancy           210334000                       # Layer occupancy (ticks)
system.membus.reqLayer2.utilization               3.2                       # Layer utilization (%)
system.membus.respLayer0.occupancy          199513500                       # Layer occupancy (ticks)
system.membus.respLayer0.utilization              3.1                       # Layer utilization (%)
system.membus.power_state.pwrStateResidencyTicks::UNDEFINED   6534715000                       # Cumulative time (in ticks) in various power states
system.mem_ctrl.bytes_read::.cpu.inst          139584                       # Number of bytes read from this memory
system.mem_ctrl.bytes_read::.cpu.data         2280192                       # Number of bytes read from this memory
system.mem_ctrl.bytes_read::total             2419776                       # Number of bytes read from this memory
system.mem_ctrl.bytes_inst_read::.cpu.inst       139584                       # Number of instructions bytes read from this memory
system.mem_ctrl.bytes_inst_read::total         139584                       # Number of instructions bytes read from this memory
system.mem_ctrl.bytes_written::.writebacks      2208320                       # Number of bytes written to this memory
system.mem_ctrl.bytes_written::total          2208320                       # Number of bytes written to this memory
system.mem_ctrl.num_reads::.cpu.inst             2181                       # Number of read requests responded to by this memory
system.mem_ctrl.num_reads::.cpu.data            35628                       # Number of read requests responded to by this memory
system.mem_ctrl.num_reads::total                37809                       # Number of read requests responded to by this memory
system.mem_ctrl.num_writes::.writebacks         34505                       # Number of write requests responded to by this memory
system.mem_ctrl.num_writes::total               34505                       # Number of write requests responded to by this memory
system.mem_ctrl.bw_read::.cpu.inst           21360381                       # Total read bandwidth from this memory (bytes/s)
system.mem_ctrl.bw_read::.cpu.data          348935187                       # Total read bandwidth from this memory (bytes/s)
system.mem_ctrl.bw_read::total              370295568                       # Total read bandwidth from this memory (bytes/s)
system.mem_ctrl.bw_inst_read::.cpu.inst      21360381                       # Instruction read bandwidth from this memory (bytes/s)
system.mem_ctrl.bw_inst_read::total          21360381                       # Instruction read bandwidth from this memory (bytes/s)
system.mem_ctrl.bw_write::.writebacks       337936697                       # Write bandwidth from this memory (bytes/s)
system.mem_ctrl.bw_write::total             337936697                       # Write bandwidth from this memory (bytes/s)
system.mem_ctrl.bw_total::.writebacks       337936697                       # Total bandwidth to/from this memory (bytes/s)
system.mem_ctrl.bw_total::.cpu.inst          21360381                       # Total bandwidth to/from this memory (bytes/s)
system.mem_ctrl.bw_total::.cpu.data         348935187                       # Total bandwidth to/from this memory (bytes/s)
system.mem_ctrl.bw_total::total             708232264                       # Total bandwidth to/from this memory (bytes/s)
system.mem_ctrl.avgPriority_.writebacks::samples     34182.00                       # Average QoS priority value for accepted requests
system.mem_ctrl.avgPriority_.cpu.inst::samples      2181.00                       # Average QoS priority value for accepted requests
system.mem_ctrl.avgPriority_.cpu.data::samples     35427.00                       # Average QoS priority value for accepted requests
system.mem_ctrl.priorityMinLatency       0.000000018750                       # per QoS priority minimum request to response latency (s)
system.mem_ctrl.priorityMaxLatency       0.001090288750                       # per QoS priority maximum request to response latency (s)
system.mem_ctrl.numReadWriteTurnArounds          2118                       # Number of turnarounds from READ to WRITE
system.mem_ctrl.numWriteReadTurnArounds          2118                       # Number of turnarounds from WRITE to READ
system.mem_ctrl.numStayReadState               109278                       # Number of times bus staying in READ state
system.mem_ctrl.numStayWriteState               32068                       # Number of times bus staying in WRITE state
system.mem_ctrl.readReqs                        37809                       # Number of read requests accepted
system.mem_ctrl.writeReqs                       34505                       # Number of write requests accepted
system.mem_ctrl.readBursts                      37809                       # Number of DRAM read bursts, including those serviced by the write queue
system.mem_ctrl.writeBursts                     34505                       # Number of DRAM write bursts, including those merged in the write queue
system.mem_ctrl.servicedByWrQ                     201                       # Number of DRAM read bursts serviced by the write queue
system.mem_ctrl.mergedWrBursts                    323                       # Number of DRAM write bursts merged with an existing one
system.mem_ctrl.neitherReadNorWriteReqs             0                       # Number of requests that are neither read nor write
system.mem_ctrl.perBankRdBursts::0               2947                       # Per bank write bursts
system.mem_ctrl.perBankRdBursts::1               2607                       # Per bank write bursts
system.mem_ctrl.perBankRdBursts::2               2595                       # Per bank write bursts
system.mem_ctrl.perBankRdBursts::3               2348                       # Per bank write bursts
system.mem_ctrl.perBankRdBursts::4               3118                       # Per bank write bursts
system.mem_ctrl.perBankRdBursts::5               2231                       # Per bank write bursts
system.mem_ctrl.perBankRdBursts::6               2189                       # Per bank write bursts
system.mem_ctrl.perBankRdBursts::7               2164                       # Per bank write bursts
system.mem_ctrl.perBankRdBursts::8               2074                       # Per bank write bursts
system.mem_ctrl.perBankRdBursts::9               2077                       # Per bank write bursts
system.mem_ctrl.perBankRdBursts::10              2241                       # Per bank write bursts
system.mem_ctrl.perBankRdBursts::11              2109                       # Per bank write bursts
system.mem_ctrl.perBankRdBursts::12              2159                       # Per bank write bursts
system.mem_ctrl.perBankRdBursts::13              2436                       # Per bank write bursts
system.mem_ctrl.perBankRdBursts::14              2133                       # Per bank write bursts
system.mem_ctrl.perBankRdBursts::15              2180                       # Per bank write bursts
system.mem_ctrl.perBankWrBursts::0               2074                       # Per bank write bursts
system.mem_ctrl.perBankWrBursts::1               2249                       # Per bank write bursts
system.mem_ctrl.perBankWrBursts::2               2218                       # Per bank write bursts
system.mem_ctrl.perBankWrBursts::3               2184                       # Per bank write bursts
system.mem_ctrl.perBankWrBursts::4               2196                       # Per bank write bursts
system.mem_ctrl.perBankWrBursts::5               2178                       # Per bank write bursts
system.mem_ctrl.perBankWrBursts::6               2154                       # Per bank write bursts
system.mem_ctrl.perBankWrBursts::7               2135                       # Per bank write bursts
system.mem_ctrl.perBankWrBursts::8               2048                       # Per bank write bursts
system.mem_ctrl.perBankWrBursts::9               2055                       # Per bank write bursts
system.mem_ctrl.perBankWrBursts::10              2093                       # Per bank write bursts
system.mem_ctrl.perBankWrBursts::11              2053                       # Per bank write bursts
system.mem_ctrl.perBankWrBursts::12              2088                       # Per bank write bursts
system.mem_ctrl.perBankWrBursts::13              2217                       # Per bank write bursts
system.mem_ctrl.perBankWrBursts::14              2100                       # Per bank write bursts
system.mem_ctrl.perBankWrBursts::15              2113                       # Per bank write bursts
system.mem_ctrl.avgRdQLen                        1.00                       # Average read queue length when enqueuing
system.mem_ctrl.avgWrQLen                       24.90                       # Average write queue length when enqueuing
system.mem_ctrl.totQLat                     320057500                       # Total ticks spent queuing
system.mem_ctrl.totBusLat                   188040000                       # Total ticks spent in databus transfers
system.mem_ctrl.totMemAccLat               1025207500                       # Total ticks spent from burst creation until serviced by the DRAM
system.mem_ctrl.avgQLat                       8510.36                       # Average queueing delay per DRAM burst
system.mem_ctrl.avgBusLat                     5000.00                       # Average bus latency per DRAM burst
system.mem_ctrl.avgMemAccLat                 27260.36                       # Average memory access latency per DRAM burst
system.mem_ctrl.numRdRetry                          0                       # Number of times read queue was full causing retry
system.mem_ctrl.numWrRetry                          0                       # Number of times write queue was full causing retry
system.mem_ctrl.readRowHits                     33613                       # Number of row buffer hits during reads
system.mem_ctrl.writeRowHits                    31624                       # Number of row buffer hits during writes
system.mem_ctrl.readRowHitRate                  89.38                       # Row buffer hit rate for reads
system.mem_ctrl.writeRowHitRate                 92.52                       # Row buffer hit rate for writes
system.mem_ctrl.readPktSize::0                      0                       # Read request sizes (log2)
system.mem_ctrl.readPktSize::1                      0                       # Read request sizes (log2)
system.mem_ctrl.readPktSize::2                      0                       # Read request sizes (log2)
system.mem_ctrl.readPktSize::3                      0                       # Read request sizes (log2)
system.mem_ctrl.readPktSize::4                      0                       # Read request sizes (log2)
system.mem_ctrl.readPktSize::5                      0                       # Read request sizes (log2)
system.mem_ctrl.readPktSize::6                  37809                       # Read request sizes (log2)
system.mem_ctrl.writePktSize::0                     0                       # Write request sizes (log2)
system.mem_ctrl.writePktSize::1                     0                       # Write request sizes (log2)
system.mem_ctrl.writePktSize::2                     0                       # Write request sizes (log2)
system.mem_ctrl.writePktSize::3                     0                       # Write request sizes (log2)
system.mem_ctrl.writePktSize::4                     0                       # Write request sizes (log2)
system.mem_ctrl.writePktSize::5                     0                       # Write request sizes (log2)
system.mem_ctrl.writePktSize::6                 34505                       # Write request sizes (log2)
system.mem_ctrl.rdQLenPdf::0                    37606                       # What read queue length does an incoming req see
system.mem_ctrl.rdQLenPdf::1                        2                       # What read queue length does an incoming req see
system.mem_ctrl.rdQLenPdf::2                        0                       # What read queue length does an incoming req see
system.mem_ctrl.rdQLenPdf::3                        0                       # What read queue length does an incoming req see
system.mem_ctrl.rdQLenPdf::4                        0                       # What read queue length does an incoming req see
system.mem_ctrl.rdQLenPdf::5                        0                       # What read queue length does an incoming req see
system.mem_ctrl.rdQLenPdf::6                        0                       # What read queue length does an incoming req see
system.mem_ctrl.rdQLenPdf::7                        0                       # What read queue length does an incoming req see
system.mem_ctrl.rdQLenPdf::8                        0                       # What read queue length does an incoming req see
system.mem_ctrl.rdQLenPdf::9                        0                       # What read queue length does an incoming req see
system.mem_ctrl.rdQLenPdf::10                       0                       # What read queue length does an incoming req see
system.mem_ctrl.rdQLenPdf::11                       0                       # What read queue length does an incoming req see
system.mem_ctrl.rdQLenPdf::12                       0                       # What read queue length does an incoming req see
system.mem_ctrl.rdQLenPdf::13                       0                       # What read queue length does an incoming req see
system.mem_ctrl.rdQLenPdf::14                       0                       # What read queue length does an incoming req see
system.mem_ctrl.rdQLenPdf::15                       0                       # What read queue length does an incoming req see
system.mem_ctrl.rdQLenPdf::16                       0                       # What read queue length does an incoming req see
system.mem_ctrl.rdQLenPdf::17                       0                       # What read queue length does an incoming req see
system.mem_ctrl.rdQLenPdf::18                       0                       # What read queue length does an incoming req see
system.mem_ctrl.rdQLenPdf::19                       0                       # What read queue length does an incoming req see
system.mem_ctrl.rdQLenPdf::20                       0                       # What read queue length does an incoming req see
system.mem_ctrl.rdQLenPdf::21                       0                       # What read queue length does an incoming req see
system.mem_ctrl.rdQLenPdf::22                       0                       # What read queue length does an incoming req see
system.mem_ctrl.rdQLenPdf::23                       0                       # What read queue length does an incoming req see
system.mem_ctrl.rdQLenPdf::24                       0                       # What read queue length does an incoming req see
system.mem_ctrl.rdQLenPdf::25                       0                       # What read queue length does an incoming req see
system.mem_ctrl.rdQLenPdf::26                       0                       # What read queue length does an incoming req see
system.mem_ctrl.rdQLenPdf::27                       0                       # What read queue length does an incoming req see
system.mem_ctrl.rdQLenPdf::28                       0                       # What read queue length does an incoming req see
system.mem_ctrl.rdQLenPdf::29                       0                       # What read queue length does an incoming req see
system.mem_ctrl.rdQLenPdf::30                       0                       # What read queue length does an incoming req see
system.mem_ctrl.rdQLenPdf::31                       0                       # What read queue length does an incoming req see
system.mem_ctrl.wrQLenPdf::0                        1                       # What write queue length does an incoming req see
system.mem_ctrl.wrQLenPdf::1                        1                       # What write queue length does an incoming req see
system.mem_ctrl.wrQLenPdf::2                        1                       # What write queue length does an incoming req see
system.mem_ctrl.wrQLenPdf::3                        1                       # What write queue length does an incoming req see
system.mem_ctrl.wrQLenPdf::4                        1                       # What write queue length does an incoming req see
system.mem_ctrl.wrQLenPdf::5                        1                       # What write queue length does an incoming req see
system.mem_ctrl.wrQLenPdf::6                        1                       # What write queue length does an incoming req see
system.mem_ctrl.wrQLenPdf::7                        1                       # What write queue length does an incoming req see
system.mem_ctrl.wrQLenPdf::8                        1                       # What write queue length does an incoming req see
system.mem_ctrl.wrQLenPdf::9                        1                       # What write queue length does an incoming req see
system.mem_ctrl.wrQLenPdf::10                       1                       # What write queue length does an incoming req see
system.mem_ctrl.wrQLenPdf::11                       1                       # What write queue length does an incoming req see
system.mem_ctrl.wrQLenPdf::12                       1                       # What write queue length does an incoming req see
system.mem_ctrl.wrQLenPdf::13                       1                       # What write queue length does an incoming req see
system.mem_ctrl.wrQLenPdf::14                       1                       # What write queue length does an incoming req see
system.mem_ctrl.wrQLenPdf::15                      75                       # What write queue length does an incoming req see
system.mem_ctrl.wrQLenPdf::16                     160                       # What write queue length does an incoming req see
system.mem_ctrl.wrQLenPdf::17                    2111                       # What write queue length does an incoming req see
system.mem_ctrl.wrQLenPdf::18                    2138                       # What write queue length does an incoming req see
system.mem_ctrl.wrQLenPdf::19                    2129                       # What write queue length does an incoming req see
system.mem_ctrl.wrQLenPdf::20                    2119                       # What write queue length does an incoming req see
system.mem_ctrl.wrQLenPdf::21                    2119                       # What write queue length does an incoming req see
system.mem_ctrl.wrQLenPdf::22                    2119                       # What write queue length does an incoming req see
system.mem_ctrl.wrQLenPdf::23                    2119                       # What write queue length does an incoming req see
system.mem_ctrl.wrQLenPdf::24                    2121                       # What write queue length does an incoming req see
system.mem_ctrl.wrQLenPdf::25                    2121                       # What write queue length does an incoming req see
system.mem_ctrl.wrQLenPdf::26                    2124                       # What write queue length does an incoming req see
system.mem_ctrl.wrQLenPdf::27                    2122                       # What write queue length does an incoming req see
system.mem_ctrl.wrQLenPdf::28                    2118                       # What write queue length does an incoming req see
system.mem_ctrl.wrQLenPdf::29                    2118                       # What write queue length does an incoming req see
system.mem_ctrl.wrQLenPdf::30                    2118                       # What write queue length does an incoming req see
system.mem_ctrl.wrQLenPdf::31                    2118                       # What write queue length does an incoming req see
system.mem_ctrl.wrQLenPdf::32                    2118                       # What write queue length does an incoming req see
system.mem_ctrl.wrQLenPdf::33                       0                       # What write queue length does an incoming req see
system.mem_ctrl.wrQLenPdf::34                       0                       # What write queue length does an incoming req see
system.mem_ctrl.wrQLenPdf::35                       0                       # What write queue length does an incoming req see
system.mem_ctrl.wrQLenPdf::36                       0                       # What write queue length does an incoming req see
system.mem_ctrl.wrQLenPdf::37                       0                       # What write queue length does an incoming req see
system.mem_ctrl.wrQLenPdf::38                       0                       # What write queue length does an incoming req see
system.mem_ctrl.wrQLenPdf::39                       0                       # What write queue length does an incoming req see
system.mem_ctrl.wrQLenPdf::40                       0                       # What write queue length does an incoming req see
system.mem_ctrl.wrQLenPdf::41                       0                       # What write queue length does an incoming req see
system.mem_ctrl.wrQLenPdf::42                       0                       # What write queue length does an incoming req see
system.mem_ctrl.wrQLenPdf::43                       0                       # What write queue length does an incoming req see
system.mem_ctrl.wrQLenPdf::44                       0                       # What write queue length does an incoming req see
system.mem_ctrl.wrQLenPdf::45                       0                       # What write queue length does an incoming req see
system.mem_ctrl.wrQLenPdf::46                       0                       # What write queue length does an incoming req see
system.mem_ctrl.wrQLenPdf::47                       0                       # What write queue length does an incoming req see
system.mem_ctrl.wrQLenPdf::48                       0                       # What write queue length does an incoming req see
system.mem_ctrl.wrQLenPdf::49                       0                       # What write queue length does an incoming req see
system.mem_ctrl.wrQLenPdf::50                       0                       # What write queue length does an incoming req see
system.mem_ctrl.wrQLenPdf::51                       0                       # What write queue length does an incoming req see
system.mem_ctrl.wrQLenPdf::52                       0                       # What write queue length does an incoming req see
system.mem_ctrl.wrQLenPdf::53                       0                       # What write queue length does an incoming req see
system.mem_ctrl.wrQLenPdf::54                       0                       # What write queue length does an incoming req see
system.mem_ctrl.wrQLenPdf::55                       0                       # What write queue length does an incoming req see
system.mem_ctrl.wrQLenPdf::56                       0                       # What write queue length does an incoming req see
system.mem_ctrl.wrQLenPdf::57                       0                       # What write queue length does an incoming req see
system.mem_ctrl.wrQLenPdf::58                       0                       # What write queue length does an incoming req see
system.mem_ctrl.wrQLenPdf::59                       0                       # What write queue length does an incoming req see
system.mem_ctrl.wrQLenPdf::60                       0                       # What write queue length does an incoming req see
system.mem_ctrl.wrQLenPdf::61                       0                       # What write queue length does an incoming req see
system.mem_ctrl.wrQLenPdf::62                       0                       # What write queue length does an incoming req see
system.mem_ctrl.wrQLenPdf::63                       0                       # What write queue length does an incoming req see
system.mem_ctrl.bytesPerActivate::samples         6524                       # Bytes accessed per row activation
system.mem_ctrl.bytesPerActivate::mean     703.941140                       # Bytes accessed per row activation
system.mem_ctrl.bytesPerActivate::gmean    516.367500                       # Bytes accessed per row activation
system.mem_ctrl.bytesPerActivate::stdev    387.010120                       # Bytes accessed per row activation
system.mem_ctrl.bytesPerActivate::0-127           669     10.25%     10.25% # Bytes accessed per row activation
system.mem_ctrl.bytesPerActivate::128-255          690     10.58%     20.83% # Bytes accessed per row activation
system.mem_ctrl.bytesPerActivate::256-383          454      6.96%     27.79% # Bytes accessed per row activation
system.mem_ctrl.bytesPerActivate::384-511          406      6.22%     34.01% # Bytes accessed per row activation
system.mem_ctrl.bytesPerActivate::512-639          319      4.89%     38.90% # Bytes accessed per row activation
system.mem_ctrl.bytesPerActivate::640-767          167      2.56%     41.46% # Bytes accessed per row activation
system.mem_ctrl.bytesPerActivate::768-895          133      2.04%     43.50% # Bytes accessed per row activation
system.mem_ctrl.bytesPerActivate::896-1023          182      2.79%     46.29% # Bytes accessed per row activation
system.mem_ctrl.bytesPerActivate::1024-1151         3504     53.71%    100.00% # Bytes accessed per row activation
system.mem_ctrl.bytesPerActivate::total          6524                       # Bytes accessed per row activation
system.mem_ctrl.rdPerTurnAround::samples         2118                       # Reads before turning the bus around for writes
system.mem_ctrl.rdPerTurnAround::mean       17.458451                       # Reads before turning the bus around for writes
system.mem_ctrl.rdPerTurnAround::gmean      16.358762                       # Reads before turning the bus around for writes
system.mem_ctrl.rdPerTurnAround::stdev      23.985764                       # Reads before turning the bus around for writes
system.mem_ctrl.rdPerTurnAround::0-31            2095     98.91%     98.91% # Reads before turning the bus around for writes
system.mem_ctrl.rdPerTurnAround::32-63             13      0.61%     99.53% # Reads before turning the bus around for writes
system.mem_ctrl.rdPerTurnAround::64-95              2      0.09%     99.62% # Reads before turning the bus around for writes
system.mem_ctrl.rdPerTurnAround::96-127             3      0.14%     99.76% # Reads before turning the bus around for writes
system.mem_ctrl.rdPerTurnAround::128-159            2      0.09%     99.86% # Reads before turning the bus around for writes
system.mem_ctrl.rdPerTurnAround::448-479            1      0.05%     99.91% # Reads before turning the bus around for writes
system.mem_ctrl.rdPerTurnAround::640-671            1      0.05%     99.95% # Reads before turning the bus around for writes
system.mem_ctrl.rdPerTurnAround::736-767            1      0.05%    100.00% # Reads before turning the bus around for writes
system.mem_ctrl.rdPerTurnAround::total           2118                       # Reads before turning the bus around for writes
system.mem_ctrl.wrPerTurnAround::samples         2118                       # Writes before turning the bus around for reads
system.mem_ctrl.wrPerTurnAround::mean       16.126062                       # Writes before turning the bus around for reads
system.mem_ctrl.wrPerTurnAround::gmean      16.119737                       # Writes before turning the bus around for reads
system.mem_ctrl.wrPerTurnAround::stdev       0.467832                       # Writes before turning the bus around for reads
system.mem_ctrl.wrPerTurnAround::16              1958     92.45%     92.45% # Writes before turning the bus around for reads
system.mem_ctrl.wrPerTurnAround::17                61      2.88%     95.33% # Writes before turning the bus around for reads
system.mem_ctrl.wrPerTurnAround::18                91      4.30%     99.62% # Writes before turning the bus around for reads
system.mem_ctrl.wrPerTurnAround::19                 8      0.38%    100.00% # Writes before turning the bus around for reads
system.mem_ctrl.wrPerTurnAround::total           2118                       # Writes before turning the bus around for reads
system.mem_ctrl.bytesReadDRAM                 2406912                       # Total number of bytes read from DRAM
system.mem_ctrl.bytesReadWrQ                    12864                       # Total number of bytes read from write queue
system.mem_ctrl.bytesWritten                  2185920                       # Total number of bytes written to DRAM
system.mem_ctrl.bytesReadSys                  2419776                       # Total read bytes from the system interface side
system.mem_ctrl.bytesWrittenSys               2208320                       # Total written bytes from the system interface side
system.mem_ctrl.avgRdBW                        368.33                       # Average DRAM read bandwidth in MiByte/s
system.mem_ctrl.avgWrBW                        334.51                       # Average achieved write bandwidth in MiByte/s
system.mem_ctrl.avgRdBWSys                     370.30                       # Average system read bandwidth in MiByte/s
system.mem_ctrl.avgWrBWSys                     337.94                       # Average system write bandwidth in MiByte/s
system.mem_ctrl.peakBW                       12800.00                       # Theoretical peak bandwidth in MiByte/s
system.mem_ctrl.busUtil                          5.49                       # Data bus utilization in percentage
system.mem_ctrl.busUtilRead                      2.88                       # Data bus utilization in percentage for reads
system.mem_ctrl.busUtilWrite                     2.61                       # Data bus utilization in percentage for writes
system.mem_ctrl.totGap                     6534439000                       # Total gap between requests
system.mem_ctrl.avgGap                       90362.02                       # Average gap between requests
system.mem_ctrl.masterReadBytes::.cpu.inst       139584                       # Per-master bytes read from memory
system.mem_ctrl.masterReadBytes::.cpu.data      2267328                       # Per-master bytes read from memory
system.mem_ctrl.masterWriteBytes::.writebacks      2185920                       # Per-master bytes write to memory
system.mem_ctrl.masterReadRate::.cpu.inst 21360380.674597132951                       # Per-master bytes read from memory rate (Bytes/sec)
system.mem_ctrl.masterReadRate::.cpu.data 346966623.640051662922                       # Per-master bytes read from memory rate (Bytes/sec)
system.mem_ctrl.masterWriteRate::.writebacks 334508850.041662096977                       # Per-master bytes write to memory rate (Bytes/sec)
system.mem_ctrl.masterReadAccesses::.cpu.inst         2181                       # Per-master read serviced memory accesses
system.mem_ctrl.masterReadAccesses::.cpu.data        35628                       # Per-master read serviced memory accesses
system.mem_ctrl.masterWriteAccesses::.writebacks        34505                       # Per-master write serviced memory accesses
system.mem_ctrl.masterReadTotalLat::.cpu.inst     59847750                       # Per-master read total memory access latency
system.mem_ctrl.masterReadTotalLat::.cpu.data    965359750                       # Per-master read total memory access latency
system.mem_ctrl.masterWriteTotalLat::.writebacks 148511654250                       # Per-master write total memory access latency
system.mem_ctrl.masterReadAvgLat::.cpu.inst     27440.51                       # Per-master read average memory access latency
system.mem_ctrl.masterReadAvgLat::.cpu.data     27095.54                       # Per-master read average memory access latency
system.mem_ctrl.masterWriteAvgLat::.writebacks   4304061.85                       # Per-master write average memory access latency
system.mem_ctrl.pageHitRate                     90.87                       # Row buffer hit rate, read and write combined
system.mem_ctrl.rank1.actEnergy              20141940                       # Energy for activate commands per rank (pJ)
system.mem_ctrl.rank1.preEnergy              10705695                       # Energy for precharge commands per rank (pJ)
system.mem_ctrl.rank1.readEnergy            124300260                       # Energy for read commands per rank (pJ)
system.mem_ctrl.rank1.writeEnergy            87523740                       # Energy for write commands per rank (pJ)
system.mem_ctrl.rank1.refreshEnergy      515682960.000000                       # Energy for refresh commands per rank (pJ)
system.mem_ctrl.rank1.actBackEnergy        1548173580                       # Energy for active background per rank (pJ)
system.mem_ctrl.rank1.preBackEnergy        1205605440                       # Energy for precharge background per rank (pJ)
system.mem_ctrl.rank1.actPowerDownEnergy            0                       # Energy for active power-down per rank (pJ)
system.mem_ctrl.rank1.prePowerDownEnergy            0                       # Energy for precharge power-down per rank (pJ)
system.mem_ctrl.rank1.selfRefreshEnergy             0                       # Energy for self refresh per rank (pJ)
system.mem_ctrl.rank1.totalEnergy          3512133615                       # Total energy per rank (pJ)
system.mem_ctrl.rank1.averagePower         537.457810                       # Core power per rank (mW)
system.mem_ctrl.rank1.totalIdleTime                 0                       # Total Idle time Per DRAM Rank
system.mem_ctrl.rank1.memoryStateTime::IDLE   3108575000                       # Time in different power states
system.mem_ctrl.rank1.memoryStateTime::REF    218140000                       # Time in different power states
system.mem_ctrl.rank1.memoryStateTime::SREF            0                       # Time in different power states
system.mem_ctrl.rank1.memoryStateTime::PRE_PDN            0                       # Time in different power states
system.mem_ctrl.rank1.memoryStateTime::ACT   3208000000                       # Time in different power states
system.mem_ctrl.rank1.memoryStateTime::ACT_PDN            0                       # Time in different power states
system.mem_ctrl.rank0.actEnergy              26453700                       # Energy for activate commands per rank (pJ)
system.mem_ctrl.rank0.preEnergy              14052885                       # Energy for precharge commands per rank (pJ)
system.mem_ctrl.rank0.readEnergy            144220860                       # Energy for read commands per rank (pJ)
system.mem_ctrl.rank0.writeEnergy            90765360                       # Energy for write commands per rank (pJ)
system.mem_ctrl.rank0.refreshEnergy      515682960.000000                       # Energy for refresh commands per rank (pJ)
system.mem_ctrl.rank0.actBackEnergy        2296814430                       # Energy for active background per rank (pJ)
system.mem_ctrl.rank0.preBackEnergy         575171040                       # Energy for precharge background per rank (pJ)
system.mem_ctrl.rank0.actPowerDownEnergy            0                       # Energy for active power-down per rank (pJ)
system.mem_ctrl.rank0.prePowerDownEnergy            0                       # Energy for precharge power-down per rank (pJ)
system.mem_ctrl.rank0.selfRefreshEnergy             0                       # Energy for self refresh per rank (pJ)
system.mem_ctrl.rank0.totalEnergy          3663161235                       # Total energy per rank (pJ)
system.mem_ctrl.rank0.averagePower         560.569395                       # Core power per rank (mW)
system.mem_ctrl.rank0.totalIdleTime                 0                       # Total Idle time Per DRAM Rank
system.mem_ctrl.rank0.memoryStateTime::IDLE   1463022500                       # Time in different power states
system.mem_ctrl.rank0.memoryStateTime::REF    218140000                       # Time in different power states
system.mem_ctrl.rank0.memoryStateTime::SREF            0                       # Time in different power states
system.mem_ctrl.rank0.memoryStateTime::PRE_PDN            0                       # Time in different power states
system.mem_ctrl.rank0.memoryStateTime::ACT   4853552500                       # Time in different power states
system.mem_ctrl.rank0.memoryStateTime::ACT_PDN            0                       # Time in different power states
system.mem_ctrl.power_state.pwrStateResidencyTicks::UNDEFINED   6534715000                       # Cumulative time (in ticks) in various power states
system.cache_medium.blocked_cycles::no_mshrs            0                       # number of cycles access was blocked
system.cache_medium.blocked_cycles::no_targets            0                       # number of cycles access was blocked
system.cache_medium.blocked::no_mshrs               0                       # number of cycles access was blocked
system.cache_medium.blocked::no_targets             0                       # number of cycles access was blocked
system.cache_medium.avg_blocked_cycles::no_mshrs          nan                       # average number of cycles each access was blocked
system.cache_medium.avg_blocked_cycles::no_targets          nan                       # average number of cycles each access was blocked
system.cache_medium.replacements                    0                       # number of replacements
system.cache_medium.power_state.pwrStateResidencyTicks::UNDEFINED   6534715000                       # Cumulative time (in ticks) in various power states
system.cache_medium.tags.tagsinuse                  0                       # Cycle average of tags in use
system.cache_medium.tags.total_refs                 0                       # Total number of references to valid blocks.
system.cache_medium.tags.sampled_refs               0                       # Sample count of references to valid blocks.
system.cache_medium.tags.avg_refs                 nan                       # Average number of references to valid blocks.
system.cache_medium.tags.warmup_cycle               0                       # Cycle when the warmup percentage was hit.
system.cache_medium.tags.tag_accesses               0                       # Number of tag accesses
system.cache_medium.tags.data_accesses              0                       # Number of data accesses
system.cache_medium.tags.power_state.pwrStateResidencyTicks::UNDEFINED   6534715000                       # Cumulative time (in ticks) in various power states
system.clk_domain.clock                          1000                       # Clock period in ticks
system.clk_domain.voltage_domain.voltage            1                       # Voltage in Volts
system.dcache.demand_hits::.cpu.data           489211                       # number of demand (read+write) hits
system.dcache.demand_hits::total               489211                       # number of demand (read+write) hits
system.dcache.overall_hits::.cpu.data          489212                       # number of overall hits
system.dcache.overall_hits::total              489212                       # number of overall hits
system.dcache.demand_misses::.cpu.data          39003                       # number of demand (read+write) misses
system.dcache.demand_misses::total              39003                       # number of demand (read+write) misses
system.dcache.overall_misses::.cpu.data         39442                       # number of overall misses
system.dcache.overall_misses::total             39442                       # number of overall misses
system.dcache.demand_miss_latency::.cpu.data   2637934000                       # number of demand (read+write) miss cycles
system.dcache.demand_miss_latency::total   2637934000                       # number of demand (read+write) miss cycles
system.dcache.overall_miss_latency::.cpu.data   2669218000                       # number of overall miss cycles
system.dcache.overall_miss_latency::total   2669218000                       # number of overall miss cycles
system.dcache.demand_accesses::.cpu.data       528214                       # number of demand (read+write) accesses
system.dcache.demand_accesses::total           528214                       # number of demand (read+write) accesses
system.dcache.overall_accesses::.cpu.data       528654                       # number of overall (read+write) accesses
system.dcache.overall_accesses::total          528654                       # number of overall (read+write) accesses
system.dcache.demand_miss_rate::.cpu.data     0.073839                       # miss rate for demand accesses
system.dcache.demand_miss_rate::total        0.073839                       # miss rate for demand accesses
system.dcache.overall_miss_rate::.cpu.data     0.074608                       # miss rate for overall accesses
system.dcache.overall_miss_rate::total       0.074608                       # miss rate for overall accesses
system.dcache.demand_avg_miss_latency::.cpu.data 67634.130708                       # average overall miss latency
system.dcache.demand_avg_miss_latency::total 67634.130708                       # average overall miss latency
system.dcache.overall_avg_miss_latency::.cpu.data 67674.509406                       # average overall miss latency
system.dcache.overall_avg_miss_latency::total 67674.509406                       # average overall miss latency
system.dcache.blocked_cycles::no_mshrs              0                       # number of cycles access was blocked
system.dcache.blocked_cycles::no_targets            0                       # number of cycles access was blocked
system.dcache.blocked::no_mshrs                     0                       # number of cycles access was blocked
system.dcache.blocked::no_targets                   0                       # number of cycles access was blocked
system.dcache.avg_blocked_cycles::no_mshrs          nan                       # average number of cycles each access was blocked
system.dcache.avg_blocked_cycles::no_targets          nan                       # average number of cycles each access was blocked
system.dcache.writebacks::.writebacks           35944                       # number of writebacks
system.dcache.writebacks::total                 35944                       # number of writebacks
system.dcache.demand_mshr_misses::.cpu.data        39003                       # number of demand (read+write) MSHR misses
system.dcache.demand_mshr_misses::total         39003                       # number of demand (read+write) MSHR misses
system.dcache.overall_mshr_misses::.cpu.data        39442                       # number of overall MSHR misses
system.dcache.overall_mshr_misses::total        39442                       # number of overall MSHR misses
system.dcache.demand_mshr_miss_latency::.cpu.data   2559930000                       # number of demand (read+write) MSHR miss cycles
system.dcache.demand_mshr_miss_latency::total   2559930000                       # number of demand (read+write) MSHR miss cycles
system.dcache.overall_mshr_miss_latency::.cpu.data   2590336000                       # number of overall MSHR miss cycles
system.dcache.overall_mshr_miss_latency::total   2590336000                       # number of overall MSHR miss cycles
system.dcache.demand_mshr_miss_rate::.cpu.data     0.073839                       # mshr miss rate for demand accesses
system.dcache.demand_mshr_miss_rate::total     0.073839                       # mshr miss rate for demand accesses
system.dcache.overall_mshr_miss_rate::.cpu.data     0.074608                       # mshr miss rate for overall accesses
system.dcache.overall_mshr_miss_rate::total     0.074608                       # mshr miss rate for overall accesses
system.dcache.demand_avg_mshr_miss_latency::.cpu.data 65634.181986                       # average overall mshr miss latency
system.dcache.demand_avg_mshr_miss_latency::total 65634.181986                       # average overall mshr miss latency
system.dcache.overall_avg_mshr_miss_latency::.cpu.data 65674.560114                       # average overall mshr miss latency
system.dcache.overall_avg_mshr_miss_latency::total 65674.560114                       # average overall mshr miss latency
system.dcache.replacements                      39185                       # number of replacements
system.dcache.ReadReq_hits::.cpu.data          156677                       # number of ReadReq hits
system.dcache.ReadReq_hits::total              156677                       # number of ReadReq hits
system.dcache.ReadReq_misses::.cpu.data          4807                       # number of ReadReq misses
system.dcache.ReadReq_misses::total              4807                       # number of ReadReq misses
system.dcache.ReadReq_miss_latency::.cpu.data    156022000                       # number of ReadReq miss cycles
system.dcache.ReadReq_miss_latency::total    156022000                       # number of ReadReq miss cycles
system.dcache.ReadReq_accesses::.cpu.data       161484                       # number of ReadReq accesses(hits+misses)
system.dcache.ReadReq_accesses::total          161484                       # number of ReadReq accesses(hits+misses)
system.dcache.ReadReq_miss_rate::.cpu.data     0.029768                       # miss rate for ReadReq accesses
system.dcache.ReadReq_miss_rate::total       0.029768                       # miss rate for ReadReq accesses
system.dcache.ReadReq_avg_miss_latency::.cpu.data 32457.249844                       # average ReadReq miss latency
system.dcache.ReadReq_avg_miss_latency::total 32457.249844                       # average ReadReq miss latency
system.dcache.ReadReq_mshr_misses::.cpu.data         4807                       # number of ReadReq MSHR misses
system.dcache.ReadReq_mshr_misses::total         4807                       # number of ReadReq MSHR misses
system.dcache.ReadReq_mshr_miss_latency::.cpu.data    146410000                       # number of ReadReq MSHR miss cycles
system.dcache.ReadReq_mshr_miss_latency::total    146410000                       # number of ReadReq MSHR miss cycles
system.dcache.ReadReq_mshr_miss_rate::.cpu.data     0.029768                       # mshr miss rate for ReadReq accesses
system.dcache.ReadReq_mshr_miss_rate::total     0.029768                       # mshr miss rate for ReadReq accesses
system.dcache.ReadReq_avg_mshr_miss_latency::.cpu.data 30457.665904                       # average ReadReq mshr miss latency
system.dcache.ReadReq_avg_mshr_miss_latency::total 30457.665904                       # average ReadReq mshr miss latency
system.dcache.WriteReq_hits::.cpu.data         332534                       # number of WriteReq hits
system.dcache.WriteReq_hits::total             332534                       # number of WriteReq hits
system.dcache.WriteReq_misses::.cpu.data        34196                       # number of WriteReq misses
system.dcache.WriteReq_misses::total            34196                       # number of WriteReq misses
system.dcache.WriteReq_miss_latency::.cpu.data   2481912000                       # number of WriteReq miss cycles
system.dcache.WriteReq_miss_latency::total   2481912000                       # number of WriteReq miss cycles
system.dcache.WriteReq_accesses::.cpu.data       366730                       # number of WriteReq accesses(hits+misses)
system.dcache.WriteReq_accesses::total         366730                       # number of WriteReq accesses(hits+misses)
system.dcache.WriteReq_miss_rate::.cpu.data     0.093246                       # miss rate for WriteReq accesses
system.dcache.WriteReq_miss_rate::total      0.093246                       # miss rate for WriteReq accesses
system.dcache.WriteReq_avg_miss_latency::.cpu.data 72579.015089                       # average WriteReq miss latency
system.dcache.WriteReq_avg_miss_latency::total 72579.015089                       # average WriteReq miss latency
system.dcache.WriteReq_mshr_misses::.cpu.data        34196                       # number of WriteReq MSHR misses
system.dcache.WriteReq_mshr_misses::total        34196                       # number of WriteReq MSHR misses
system.dcache.WriteReq_mshr_miss_latency::.cpu.data   2413520000                       # number of WriteReq MSHR miss cycles
system.dcache.WriteReq_mshr_miss_latency::total   2413520000                       # number of WriteReq MSHR miss cycles
system.dcache.WriteReq_mshr_miss_rate::.cpu.data     0.093246                       # mshr miss rate for WriteReq accesses
system.dcache.WriteReq_mshr_miss_rate::total     0.093246                       # mshr miss rate for WriteReq accesses
system.dcache.WriteReq_avg_mshr_miss_latency::.cpu.data 70579.015089                       # average WriteReq mshr miss latency
system.dcache.WriteReq_avg_mshr_miss_latency::total 70579.015089                       # average WriteReq mshr miss latency
system.dcache.SoftPFReq_hits::.cpu.data             1                       # number of SoftPFReq hits
system.dcache.SoftPFReq_hits::total                 1                       # number of SoftPFReq hits
system.dcache.SoftPFReq_misses::.cpu.data          439                       # number of SoftPFReq misses
system.dcache.SoftPFReq_misses::total             439                       # number of SoftPFReq misses
system.dcache.SoftPFReq_miss_latency::.cpu.data     31284000                       # number of SoftPFReq miss cycles
system.dcache.SoftPFReq_miss_latency::total     31284000                       # number of SoftPFReq miss cycles
system.dcache.SoftPFReq_accesses::.cpu.data          440                       # number of SoftPFReq accesses(hits+misses)
system.dcache.SoftPFReq_accesses::total           440                       # number of SoftPFReq accesses(hits+misses)
system.dcache.SoftPFReq_miss_rate::.cpu.data     0.997727                       # miss rate for SoftPFReq accesses
system.dcache.SoftPFReq_miss_rate::total     0.997727                       # miss rate for SoftPFReq accesses
system.dcache.SoftPFReq_avg_miss_latency::.cpu.data 71261.958998                       # average SoftPFReq miss latency
system.dcache.SoftPFReq_avg_miss_latency::total 71261.958998                       # average SoftPFReq miss latency
system.dcache.SoftPFReq_mshr_misses::.cpu.data          439                       # number of SoftPFReq MSHR misses
system.dcache.SoftPFReq_mshr_misses::total          439                       # number of SoftPFReq MSHR misses
system.dcache.SoftPFReq_mshr_miss_latency::.cpu.data     30406000                       # number of SoftPFReq MSHR miss cycles
system.dcache.SoftPFReq_mshr_miss_latency::total     30406000                       # number of SoftPFReq MSHR miss cycles
system.dcache.SoftPFReq_mshr_miss_rate::.cpu.data     0.997727                       # mshr miss rate for SoftPFReq accesses
system.dcache.SoftPFReq_mshr_miss_rate::total     0.997727                       # mshr miss rate for SoftPFReq accesses
system.dcache.SoftPFReq_avg_mshr_miss_latency::.cpu.data 69261.958998                       # average SoftPFReq mshr miss latency
system.dcache.SoftPFReq_avg_mshr_miss_latency::total 69261.958998                       # average SoftPFReq mshr miss latency
system.dcache.power_state.pwrStateResidencyTicks::UNDEFINED   6534715000                       # Cumulative time (in ticks) in various power states
system.dcache.tags.tagsinuse               251.977762                       # Cycle average of tags in use
system.dcache.tags.total_refs                  509048                       # Total number of references to valid blocks.
system.dcache.tags.sampled_refs                 39185                       # Sample count of references to valid blocks.
system.dcache.tags.avg_refs                 12.990889                       # Average number of references to valid blocks.
system.dcache.tags.warmup_cycle                167000                       # Cycle when the warmup percentage was hit.
system.dcache.tags.occ_blocks::.cpu.data   251.977762                       # Average occupied blocks per requestor
system.dcache.tags.occ_percent::.cpu.data     0.984288                       # Average percentage of cache occupancy
system.dcache.tags.occ_percent::total        0.984288                       # Average percentage of cache occupancy
system.dcache.tags.occ_task_id_blocks::1024          256                       # Occupied blocks per task id
system.dcache.tags.age_task_id_blocks_1024::0            3                       # Occupied blocks per task id
system.dcache.tags.age_task_id_blocks_1024::1           36                       # Occupied blocks per task id
system.dcache.tags.age_task_id_blocks_1024::2          176                       # Occupied blocks per task id
system.dcache.tags.age_task_id_blocks_1024::3           41                       # Occupied blocks per task id
system.dcache.tags.occ_task_id_percent::1024            1                       # Percentage of cache occupancy per task id
system.dcache.tags.tag_accesses                568095                       # Number of tag accesses
system.dcache.tags.data_accesses               568095                       # Number of data accesses
system.dcache.tags.power_state.pwrStateResidencyTicks::UNDEFINED   6534715000                       # Cumulative time (in ticks) in various power states
system.cache_large.blocked_cycles::no_mshrs            0                       # number of cycles access was blocked
system.cache_large.blocked_cycles::no_targets            0                       # number of cycles access was blocked
system.cache_large.blocked::no_mshrs                0                       # number of cycles access was blocked
system.cache_large.blocked::no_targets              0                       # number of cycles access was blocked
system.cache_large.avg_blocked_cycles::no_mshrs          nan                       # average number of cycles each access was blocked
system.cache_large.avg_blocked_cycles::no_targets          nan                       # average number of cycles each access was blocked
system.cache_large.replacements                     0                       # number of replacements
system.cache_large.power_state.pwrStateResidencyTicks::UNDEFINED   6534715000                       # Cumulative time (in ticks) in various power states
system.cache_large.tags.tagsinuse                   0                       # Cycle average of tags in use
system.cache_large.tags.total_refs                  0                       # Total number of references to valid blocks.
system.cache_large.tags.sampled_refs                0                       # Sample count of references to valid blocks.
system.cache_large.tags.avg_refs                  nan                       # Average number of references to valid blocks.
system.cache_large.tags.warmup_cycle                0                       # Cycle when the warmup percentage was hit.
system.cache_large.tags.tag_accesses                0                       # Number of tag accesses
system.cache_large.tags.data_accesses               0                       # Number of data accesses
system.cache_large.tags.power_state.pwrStateResidencyTicks::UNDEFINED   6534715000                       # Cumulative time (in ticks) in various power states
[...]
system.dcache.tags.age_task_id_blocks_1024::4           23                       # Occupied blocks per task id
system.dcache.tags.occ_task_id_percent::1024            1                       # Percentage of cache occupancy per task id
system.dcache.tags.tag_accesses               2349987                       # Number of tag accesses
system.dcache.tags.data_accesses              2349987                       # Number of data accesses
system.dcache.tags.power_state.pwrStateResidencyTicks::UNDEFINED  22368806000                       # Cumulative time (in ticks) in various power states
system.cache_large.blocked_cycles::no_mshrs            0                       # number of cycles access was blocked
system.cache_large.blocked_cycles::no_targets            0                       # number of cycles access was blocked
system.cache_large.blocked::no_mshrs                0                       # number of cycles access was blocked
system.cache_large.blocked::no_targets              0                       # number of cycles access was blocked
system.cache_large.avg_blocked_cycles::no_mshrs          nan                       # average number of cycles each access was blocked
system.cache_large.avg_blocked_cycles::no_targets          nan                       # average number of cycles each access was blocked
system.cache_large.replacements                     0                       # number of replacements
system.cache_large.power_state.pwrStateResidencyTicks::UNDEFINED  22368806000                       # Cumulative time (in ticks) in various power states
system.cache_large.tags.tagsinuse                   0                       # Cycle average of tags in use
system.cache_large.tags.total_refs                  0                       # Total number of references to valid blocks.
system.cache_large.tags.sampled_refs                0                       # Sample count of references to valid blocks.
system.cache_large.tags.avg_refs                  nan                       # Average number of references to valid blocks.
system.cache_large.tags.warmup_cycle                0                       # Cycle when the warmup percentage was hit.
system.cache_large.tags.tag_accesses                0                       # Number of tag accesses
system.cache_large.tags.data_accesses               0                       # Number of data accesses
system.cache_large.tags.power_state.pwrStateResidencyTicks::UNDEFINED  22368806000                       # Cumulative time (in ticks) in various power states
system.l2cache.demand_hits::.cpu.inst            3304                       # number of demand (read+write) hits
system.l2cache.demand_hits::.cpu.data           21256                       # number of demand (read+write) hits
system.l2cache.demand_hits::total               24560                       # number of demand (read+write) hits
system.l2cache.overall_hits::.cpu.inst           3304                       # number of overall hits
system.l2cache.overall_hits::.cpu.data          21256                       # number of overall hits
system.l2cache.overall_hits::total              24560                       # number of overall hits
system.l2cache.demand_misses::.cpu.inst         29554                       # number of demand (read+write) misses
system.l2cache.demand_misses::.cpu.data         41855                       # number of demand (read+write) misses
system.l2cache.demand_misses::total             71409                       # number of demand (read+write) misses
system.l2cache.overall_misses::.cpu.inst        29554                       # number of overall misses
system.l2cache.overall_misses::.cpu.data        41855                       # number of overall misses
system.l2cache.overall_misses::total            71409                       # number of overall misses
system.l2cache.demand_miss_latency::.cpu.inst   1234680000                       # number of demand (read+write) miss cycles
system.l2cache.demand_miss_latency::.cpu.data   2633392000                       # number of demand (read+write) miss cycles
system.l2cache.demand_miss_latency::total   3868072000                       # number of demand (read+write) miss cycles
system.l2cache.overall_miss_latency::.cpu.inst   1234680000                       # number of overall miss cycles
system.l2cache.overall_miss_latency::.cpu.data   2633392000                       # number of overall miss cycles
system.l2cache.overall_miss_latency::total   3868072000                       # number of overall miss cycles
system.l2cache.demand_accesses::.cpu.inst        32858                       # number of demand (read+write) accesses
system.l2cache.demand_accesses::.cpu.data        63111                       # number of demand (read+write) accesses
system.l2cache.demand_accesses::total           95969                       # number of demand (read+write) accesses
system.l2cache.overall_accesses::.cpu.inst        32858                       # number of overall (read+write) accesses
system.l2cache.overall_accesses::.cpu.data        63111                       # number of overall (read+write) accesses
system.l2cache.overall_accesses::total          95969                       # number of overall (read+write) accesses
system.l2cache.demand_miss_rate::.cpu.inst     0.899446                       # miss rate for demand accesses
system.l2cache.demand_miss_rate::.cpu.data     0.663197                       # miss rate for demand accesses
system.l2cache.demand_miss_rate::total       0.744084                       # miss rate for demand accesses
system.l2cache.overall_miss_rate::.cpu.inst     0.899446                       # miss rate for overall accesses
system.l2cache.overall_miss_rate::.cpu.data     0.663197                       # miss rate for overall accesses
system.l2cache.overall_miss_rate::total      0.744084                       # miss rate for overall accesses
system.l2cache.demand_avg_miss_latency::.cpu.inst 41777.086012                       # average overall miss latency
system.l2cache.demand_avg_miss_latency::.cpu.data 62917.023056                       # average overall miss latency
system.l2cache.demand_avg_miss_latency::total 54167.849991                       # average overall miss latency
system.l2cache.overall_avg_miss_latency::.cpu.inst 41777.086012                       # average overall miss latency
system.l2cache.overall_avg_miss_latency::.cpu.data 62917.023056                       # average overall miss latency
system.l2cache.overall_avg_miss_latency::total 54167.849991                       # average overall miss latency
system.l2cache.blocked_cycles::no_mshrs             0                       # number of cycles access was blocked
system.l2cache.blocked_cycles::no_targets            0                       # number of cycles access was blocked
system.l2cache.blocked::no_mshrs                    0                       # number of cycles access was blocked
system.l2cache.blocked::no_targets                  0                       # number of cycles access was blocked
system.l2cache.avg_blocked_cycles::no_mshrs          nan                       # average number of cycles each access was blocked
system.l2cache.avg_blocked_cycles::no_targets          nan                       # average number of cycles each access was blocked
system.l2cache.writebacks::.writebacks          35554                       # number of writebacks
system.l2cache.writebacks::total                35554                       # number of writebacks
system.l2cache.demand_mshr_misses::.cpu.inst        29554                       # number of demand (read+write) MSHR misses
system.l2cache.demand_mshr_misses::.cpu.data        41855                       # number of demand (read+write) MSHR misses
system.l2cache.demand_mshr_misses::total        71409                       # number of demand (read+write) MSHR misses
system.l2cache.overall_mshr_misses::.cpu.inst        29554                       # number of overall MSHR misses
system.l2cache.overall_mshr_misses::.cpu.data        41855                       # number of overall MSHR misses
system.l2cache.overall_mshr_misses::total        71409                       # number of overall MSHR misses
system.l2cache.demand_mshr_miss_latency::.cpu.inst   1175572000                       # number of demand (read+write) MSHR miss cycles
system.l2cache.demand_mshr_miss_latency::.cpu.data   2549682000                       # number of demand (read+write) MSHR miss cycles
system.l2cache.demand_mshr_miss_latency::total   3725254000                       # number of demand (read+write) MSHR miss cycles
system.l2cache.overall_mshr_miss_latency::.cpu.inst   1175572000                       # number of overall MSHR miss cycles
system.l2cache.overall_mshr_miss_latency::.cpu.data   2549682000                       # number of overall MSHR miss cycles
system.l2cache.overall_mshr_miss_latency::total   3725254000                       # number of overall MSHR miss cycles
system.l2cache.demand_mshr_miss_rate::.cpu.inst     0.899446                       # mshr miss rate for demand accesses
system.l2cache.demand_mshr_miss_rate::.cpu.data     0.663197                       # mshr miss rate for demand accesses
system.l2cache.demand_mshr_miss_rate::total     0.744084                       # mshr miss rate for demand accesses
system.l2cache.overall_mshr_miss_rate::.cpu.inst     0.899446                       # mshr miss rate for overall accesses
system.l2cache.overall_mshr_miss_rate::.cpu.data     0.663197                       # mshr miss rate for overall accesses
system.l2cache.overall_mshr_miss_rate::total     0.744084                       # mshr miss rate for overall accesses
system.l2cache.demand_avg_mshr_miss_latency::.cpu.inst 39777.086012                       # average overall mshr miss latency
system.l2cache.demand_avg_mshr_miss_latency::.cpu.data 60917.023056                       # average overall mshr miss latency
system.l2cache.demand_avg_mshr_miss_latency::total 52167.849991                       # average overall mshr miss latency
system.l2cache.overall_avg_mshr_miss_latency::.cpu.inst 39777.086012                       # average overall mshr miss latency
system.l2cache.overall_avg_mshr_miss_latency::.cpu.data 60917.023056                       # average overall mshr miss latency
system.l2cache.overall_avg_mshr_miss_latency::total 52167.849991                       # average overall mshr miss latency
system.l2cache.replacements                     73358                       # number of replacements
system.l2cache.ReadReq_hits::.cpu.inst           3304                       # number of ReadReq hits
system.l2cache.ReadReq_hits::.cpu.data          21256                       # number of ReadReq hits
system.l2cache.ReadReq_hits::total              24560                       # number of ReadReq hits
system.l2cache.ReadReq_misses::.cpu.inst        29554                       # number of ReadReq misses
system.l2cache.ReadReq_misses::.cpu.data        41855                       # number of ReadReq misses
system.l2cache.ReadReq_misses::total            71409                       # number of ReadReq misses
system.l2cache.ReadReq_miss_latency::.cpu.inst   1234680000                       # number of ReadReq miss cycles
system.l2cache.ReadReq_miss_latency::.cpu.data   2633392000                       # number of ReadReq miss cycles
system.l2cache.ReadReq_miss_latency::total   3868072000                       # number of ReadReq miss cycles
system.l2cache.ReadReq_accesses::.cpu.inst        32858                       # number of ReadReq accesses(hits+misses)
system.l2cache.ReadReq_accesses::.cpu.data        63111                       # number of ReadReq accesses(hits+misses)
system.l2cache.ReadReq_accesses::total          95969                       # number of ReadReq accesses(hits+misses)
system.l2cache.ReadReq_miss_rate::.cpu.inst     0.899446                       # miss rate for ReadReq accesses
system.l2cache.ReadReq_miss_rate::.cpu.data     0.663197                       # miss rate for ReadReq accesses
system.l2cache.ReadReq_miss_rate::total      0.744084                       # miss rate for ReadReq accesses
system.l2cache.ReadReq_avg_miss_latency::.cpu.inst 41777.086012                       # average ReadReq miss latency
system.l2cache.ReadReq_avg_miss_latency::.cpu.data 62917.023056                       # average ReadReq miss latency
system.l2cache.ReadReq_avg_miss_latency::total 54167.849991                       # average ReadReq miss latency
system.l2cache.ReadReq_mshr_misses::.cpu.inst        29554                       # number of ReadReq MSHR misses
system.l2cache.ReadReq_mshr_misses::.cpu.data        41855                       # number of ReadReq MSHR misses
system.l2cache.ReadReq_mshr_misses::total        71409                       # number of ReadReq MSHR misses
system.l2cache.ReadReq_mshr_miss_latency::.cpu.inst   1175572000                       # number of ReadReq MSHR miss cycles
system.l2cache.ReadReq_mshr_miss_latency::.cpu.data   2549682000                       # number of ReadReq MSHR miss cycles
system.l2cache.ReadReq_mshr_miss_latency::total   3725254000                       # number of ReadReq MSHR miss cycles
system.l2cache.ReadReq_mshr_miss_rate::.cpu.inst     0.899446                       # mshr miss rate for ReadReq accesses
system.l2cache.ReadReq_mshr_miss_rate::.cpu.data     0.663197                       # mshr miss rate for ReadReq accesses
system.l2cache.ReadReq_mshr_miss_rate::total     0.744084                       # mshr miss rate for ReadReq accesses
system.l2cache.ReadReq_avg_mshr_miss_latency::.cpu.inst 39777.086012                       # average ReadReq mshr miss latency
system.l2cache.ReadReq_avg_mshr_miss_latency::.cpu.data 60917.023056                       # average ReadReq mshr miss latency
system.l2cache.ReadReq_avg_mshr_miss_latency::total 52167.849991                       # average ReadReq mshr miss latency
system.l2cache.WritebackDirty_hits::.writebacks        38099                       # number of WritebackDirty hits
system.l2cache.WritebackDirty_hits::total        38099                       # number of WritebackDirty hits
system.l2cache.WritebackDirty_accesses::.writebacks        38099                       # number of WritebackDirty accesses(hits+misses)
system.l2cache.WritebackDirty_accesses::total        38099                       # number of WritebackDirty accesses(hits+misses)
system.l2cache.power_state.pwrStateResidencyTicks::UNDEFINED  22368806000                       # Cumulative time (in ticks) in various power states
system.l2cache.tags.tagsinuse              509.055295                       # Cycle average of tags in use
system.l2cache.tags.total_refs                 134068                       # Total number of references to valid blocks.
system.l2cache.tags.sampled_refs                73870                       # Sample count of references to valid blocks.
system.l2cache.tags.avg_refs                 1.814918                       # Average number of references to valid blocks.
system.l2cache.tags.warmup_cycle                76000                       # Cycle when the warmup percentage was hit.
system.l2cache.tags.occ_blocks::.writebacks    82.688125                       # Average occupied blocks per requestor
system.l2cache.tags.occ_blocks::.cpu.inst    14.037610                       # Average occupied blocks per requestor
system.l2cache.tags.occ_blocks::.cpu.data   412.329561                       # Average occupied blocks per requestor
system.l2cache.tags.occ_percent::.writebacks     0.161500                       # Average percentage of cache occupancy
system.l2cache.tags.occ_percent::.cpu.inst     0.027417                       # Average percentage of cache occupancy
system.l2cache.tags.occ_percent::.cpu.data     0.805331                       # Average percentage of cache occupancy
system.l2cache.tags.occ_percent::total       0.994249                       # Average percentage of cache occupancy
system.l2cache.tags.occ_task_id_blocks::1024          512                       # Occupied blocks per task id
system.l2cache.tags.age_task_id_blocks_1024::0            5                       # Occupied blocks per task id
system.l2cache.tags.age_task_id_blocks_1024::1            8                       # Occupied blocks per task id
system.l2cache.tags.age_task_id_blocks_1024::2           41                       # Occupied blocks per task id
system.l2cache.tags.age_task_id_blocks_1024::3          159                       # Occupied blocks per task id
system.l2cache.tags.age_task_id_blocks_1024::4          299                       # Occupied blocks per task id
system.l2cache.tags.occ_task_id_percent::1024            1                       # Percentage of cache occupancy per task id
system.l2cache.tags.tag_accesses               207938                       # Number of tag accesses
system.l2cache.tags.data_accesses              207938                       # Number of data accesses
system.l2cache.tags.power_state.pwrStateResidencyTicks::UNDEFINED  22368806000                       # Cumulative time (in ticks) in various power states
system.l2bar.trans_dist::ReadReq                95969                       # Transaction distribution
system.l2bar.trans_dist::ReadResp               95969                       # Transaction distribution
system.l2bar.trans_dist::WritebackDirty         38099                       # Transaction distribution
system.l2bar.pkt_count_system.dcache.mem_side::system.l2cache.cpu_side       164321                       # Packet count per connected master and slave (bytes)
system.l2bar.pkt_count_system.icache.mem_side::system.l2cache.cpu_side        65716                       # Packet count per connected master and slave (bytes)
system.l2bar.pkt_count::total                  230037                       # Packet count per connected master and slave (bytes)
system.l2bar.pkt_size_system.dcache.mem_side::system.l2cache.cpu_side      6477440                       # Cumulative packet size per connected master and slave (bytes)
system.l2bar.pkt_size_system.icache.mem_side::system.l2cache.cpu_side      2102912                       # Cumulative packet size per connected master and slave (bytes)
system.l2bar.pkt_size::total                  8580352                       # Cumulative packet size per connected master and slave (bytes)
system.l2bar.respLayer1.occupancy           164290000                       # Layer occupancy (ticks)
system.l2bar.respLayer1.utilization               0.7                       # Layer utilization (%)
system.l2bar.reqLayer0.occupancy            286464000                       # Layer occupancy (ticks)
system.l2bar.reqLayer0.utilization                1.3                       # Layer utilization (%)
system.l2bar.respLayer0.occupancy           315555000                       # Layer occupancy (ticks)
system.l2bar.respLayer0.utilization               1.4                       # Layer utilization (%)
system.l2bar.power_state.pwrStateResidencyTicks::UNDEFINED  22368806000                       # Cumulative time (in ticks) in various power states
system.cpu.dtb.walker.power_state.pwrStateResidencyTicks::UNDEFINED  22368806000                       # Cumulative time (in ticks) in various power states
system.cpu.interrupts.clk_domain.clock          16000                       # Clock period in ticks
system.cpu.itb.walker.power_state.pwrStateResidencyTicks::UNDEFINED  22368806000                       # Cumulative time (in ticks) in various power states
system.cpu.power_state.numTransitions               1                       # Number of power state transitions
system.cpu.power_state.pwrStateResidencyTicks::ON  22368806000                       # Cumulative time (in ticks) in various power states

---------- End Simulation Statistics   ----------
