
---------- Begin Simulation Statistics ----------
final_tick                                 3709774000                       # Number of ticks from beginning of simulation (restored from checkpoints and never reset)
host_inst_rate                                 571828                       # Simulator instruction rate (inst/s)
host_mem_usage                                 972636                       # Number of bytes of host memory used
host_op_rate                                   997200                       # Simulator op (including micro ops) rate (op/s)
host_seconds                                     1.79                       # Real time elapsed on the host
host_tick_rate                             2068989012                       # Simulator tick rate (ticks/s)
sim_freq                                 1000000000000                       # Frequency of simulated ticks
sim_insts                                     1025196                       # Number of instructions simulated
sim_ops                                       1787984                       # Number of ops (including micro ops) simulated
sim_seconds                                  0.003710                       # Number of seconds simulated
sim_ticks                                  3709774000                       # Number of ticks simulated
system.cpu.Branches                            178678                       # Number of branches fetched
system.cpu.committedInsts                     1025196                       # Number of instructions committed
system.cpu.committedOps                       1787984                       # Number of ops (including micro ops) committed
system.cpu.dtb.rdAccesses                      247404                       # TLB accesses on read requests
system.cpu.dtb.rdMisses                            40                       # TLB misses on read requests
system.cpu.dtb.wrAccesses                      110897                       # TLB accesses on write requests
system.cpu.dtb.wrMisses                            50                       # TLB misses on write requests
system.cpu.idle_fraction                            0                       # Percentage of idle cycles
system.cpu.itb.rdAccesses                           0                       # TLB accesses on read requests
system.cpu.itb.rdMisses                             0                       # TLB misses on read requests
system.cpu.itb.wrAccesses                     1343981                       # TLB accesses on write requests
system.cpu.itb.wrMisses                           197                       # TLB misses on write requests
system.cpu.not_idle_fraction                        1                       # Percentage of non-idle cycles
system.cpu.numCycles                          3709767                       # number of cpu cycles simulated
system.cpu.numWorkItemsCompleted                    0                       # number of work items this cpu completed
system.cpu.numWorkItemsStarted                      0                       # number of work items this cpu started
system.cpu.num_busy_cycles                    3709767                       # Number of busy cycles
system.cpu.num_cc_register_reads               803913                       # number of times the CC registers were read
system.cpu.num_cc_register_writes              626911                       # number of times the CC registers were written
system.cpu.num_conditional_control_insts       127958                       # number of instructions that are conditional controls
system.cpu.num_fp_alu_accesses                 234302                       # Number of float alu accesses
system.cpu.num_fp_insts                        234302                       # number of float instructions
system.cpu.num_fp_register_reads               305845                       # number of times the floating registers were read
system.cpu.num_fp_register_writes              196112                       # number of times the floating registers were written
system.cpu.num_func_calls                       39821                       # number of times a function call or return occured
system.cpu.num_idle_cycles                          0                       # Number of idle cycles
system.cpu.num_int_alu_accesses               1660875                       # Number of integer alu accesses
system.cpu.num_int_insts                      1660875                       # number of integer instructions
system.cpu.num_int_register_reads             3439406                       # number of times the integer registers were read
system.cpu.num_int_register_writes            1444751                       # number of times the integer registers were written
system.cpu.num_load_insts                      247376                       # Number of load instructions
system.cpu.num_mem_refs                        358243                       # number of memory refs
system.cpu.num_store_insts                     110867                       # Number of store instructions
system.cpu.num_vec_alu_accesses                     0                       # Number of vector alu accesses
system.cpu.num_vec_insts                            0                       # number of vector instructions
system.cpu.num_vec_register_reads                   0                       # number of times the vector registers were read
system.cpu.num_vec_register_writes                  0                       # number of times the vector registers were written
system.cpu.op_class::No_OpClass                 14122      0.79%      0.79% # Class of executed instruction
system.cpu.op_class::IntAlu                   1240444     69.38%     70.17% # Class of executed instruction
system.cpu.op_class::IntMult                    11886      0.66%     70.83% # Class of executed instruction
system.cpu.op_class::IntDiv                     74557      4.17%     75.00% # Class of executed instruction
system.cpu.op_class::FloatAdd                     141      0.01%     75.01% # Class of executed instruction
system.cpu.op_class::FloatCmp                       0      0.00%     75.01% # Class of executed instruction
system.cpu.op_class::FloatCvt                       0      0.00%     75.01% # Class of executed instruction
system.cpu.op_class::FloatMult                      0      0.00%     75.01% # Class of executed instruction
system.cpu.op_class::FloatMultAcc                   0      0.00%     75.01% # Class of executed instruction
system.cpu.op_class::FloatDiv                       0      0.00%     75.01% # Class of executed instruction
system.cpu.op_class::FloatMisc                      0      0.00%     75.01% # Class of executed instruction
system.cpu.op_class::FloatSqrt                      0      0.00%     75.01% # Class of executed instruction
system.cpu.op_class::SimdAdd                       26      0.00%     75.01% # Class of executed instruction
system.cpu.op_class::SimdAddAcc                     0      0.00%     75.01% # Class of executed instruction
system.cpu.op_class::SimdAlu                    11536      0.65%     75.65% # Class of executed instruction
system.cpu.op_class::SimdCmp                        0      0.00%     75.65% # Class of executed instruction
system.cpu.op_class::SimdCvt                      382      0.02%     75.68% # Class of executed instruction
system.cpu.op_class::SimdMisc                    3983      0.22%     75.90% # Class of executed instruction
system.cpu.op_class::SimdMult                       0      0.00%     75.90% # Class of executed instruction
system.cpu.op_class::SimdMultAcc                    0      0.00%     75.90% # Class of executed instruction
system.cpu.op_class::SimdShift                      0      0.00%     75.90% # Class of executed instruction
system.cpu.op_class::SimdShiftAcc                   0      0.00%     75.90% # Class of executed instruction
system.cpu.op_class::SimdDiv                        0      0.00%     75.90% # Class of executed instruction
system.cpu.op_class::SimdSqrt                       0      0.00%     75.90% # Class of executed instruction
system.cpu.op_class::SimdFloatAdd               23892      1.34%     77.24% # Class of executed instruction
system.cpu.op_class::SimdFloatAlu                   0      0.00%     77.24% # Class of executed instruction
system.cpu.op_class::SimdFloatCmp                   0      0.00%     77.24% # Class of executed instruction
system.cpu.op_class::SimdFloatCvt                8013      0.45%     77.68% # Class of executed instruction
system.cpu.op_class::SimdFloatDiv                 228      0.01%     77.70% # Class of executed instruction
system.cpu.op_class::SimdFloatMisc                  0      0.00%     77.70% # Class of executed instruction
system.cpu.op_class::SimdFloatMult              40551      2.27%     79.96% # Class of executed instruction
system.cpu.op_class::SimdFloatMultAcc               0      0.00%     79.96% # Class of executed instruction
system.cpu.op_class::SimdFloatSqrt                  0      0.00%     79.96% # Class of executed instruction
system.cpu.op_class::SimdReduceAdd                  0      0.00%     79.96% # Class of executed instruction
system.cpu.op_class::SimdReduceAlu                  0      0.00%     79.96% # Class of executed instruction
system.cpu.op_class::SimdReduceCmp                  0      0.00%     79.96% # Class of executed instruction
system.cpu.op_class::SimdFloatReduceAdd             0      0.00%     79.96% # Class of executed instruction
system.cpu.op_class::SimdFloatReduceCmp             0      0.00%     79.96% # Class of executed instruction
system.cpu.op_class::SimdAes                        0      0.00%     79.96% # Class of executed instruction
system.cpu.op_class::SimdAesMix                     0      0.00%     79.96% # Class of executed instruction
system.cpu.op_class::SimdSha1Hash                   0      0.00%     79.96% # Class of executed instruction
system.cpu.op_class::SimdSha1Hash2                  0      0.00%     79.96% # Class of executed instruction
system.cpu.op_class::SimdSha256Hash                 0      0.00%     79.96% # Class of executed instruction
system.cpu.op_class::SimdSha256Hash2                0      0.00%     79.96% # Class of executed instruction
system.cpu.op_class::SimdShaSigma2                  0      0.00%     79.96% # Class of executed instruction
system.cpu.op_class::SimdShaSigma3                  0      0.00%     79.96% # Class of executed instruction
system.cpu.op_class::SimdPredAlu                    0      0.00%     79.96% # Class of executed instruction
system.cpu.op_class::MemRead                   151450      8.47%     88.43% # Class of executed instruction
system.cpu.op_class::MemWrite                   78300      4.38%     92.81% # Class of executed instruction
system.cpu.op_class::FloatMemRead               95926      5.36%     98.18% # Class of executed instruction
system.cpu.op_class::FloatMemWrite              32567      1.82%    100.00% # Class of executed instruction
system.cpu.op_class::IprAccess                      0      0.00%    100.00% # Class of executed instruction
system.cpu.op_class::InstPrefetch                   0      0.00%    100.00% # Class of executed instruction
system.cpu.op_class::total                    1788004                       # Class of executed instruction
system.cpu.workload.numSyscalls                    16                       # Number of system calls
system.dynamic_cache.invTick                        0                       # Ticks taken to invalidate
system.membus.snoop_filter.hit_multi_requests            0                       # Number of requests hitting in the snoop filter with multiple (>1) holders of the requested data.
system.membus.snoop_filter.hit_multi_snoops            0                       # Number of snoops hitting in the snoop filter with multiple (>1) holders of the requested data.
system.membus.snoop_filter.hit_single_requests            0                       # Number of requests hitting in the snoop filter with a single holder of the requested data.
system.membus.snoop_filter.hit_single_snoops            0                       # Number of snoops hitting in the snoop filter with a single holder of the requested data.
system.membus.snoop_filter.tot_requests             0                       # Total number of requests made to the snoop filter.
system.membus.snoop_filter.tot_snoops               0                       # Total number of snoops made to the snoop filter.
system.cache_small.blocked_cycles::no_mshrs            0                       # number of cycles access was blocked
system.cache_small.blocked_cycles::no_targets            0                       # number of cycles access was blocked
system.cache_small.blocked::no_mshrs                0                       # number of cycles access was blocked
system.cache_small.blocked::no_targets              0                       # number of cycles access was blocked
system.cache_small.avg_blocked_cycles::no_mshrs          nan                       # average number of cycles each access was blocked
system.cache_small.avg_blocked_cycles::no_targets          nan                       # average number of cycles each access was blocked
system.cache_small.replacements                     0                       # number of replacements
system.cache_small.power_state.pwrStateResidencyTicks::UNDEFINED   3709774000                       # Cumulative time (in ticks) in various power states
system.cache_small.tags.tagsinuse                   0                       # Cycle average of tags in use
system.cache_small.tags.total_refs                  0                       # Total number of references to valid blocks.
system.cache_small.tags.sampled_refs                0                       # Sample count of references to valid blocks.
system.cache_small.tags.avg_refs                  nan                       # Average number of references to valid blocks.
system.cache_small.tags.warmup_cycle                0                       # Cycle when the warmup percentage was hit.
system.cache_small.tags.tag_accesses                0                       # Number of tag accesses
system.cache_small.tags.data_accesses               0                       # Number of data accesses
system.cache_small.tags.power_state.pwrStateResidencyTicks::UNDEFINED   3709774000                       # Cumulative time (in ticks) in various power states
system.icache.demand_hits::.cpu.inst          1340892                       # number of demand (read+write) hits
system.icache.demand_hits::total              1340892                       # number of demand (read+write) hits
system.icache.overall_hits::.cpu.inst         1340892                       # number of overall hits
system.icache.overall_hits::total             1340892                       # number of overall hits
system.icache.demand_misses::.cpu.inst           3089                       # number of demand (read+write) misses
system.icache.demand_misses::total               3089                       # number of demand (read+write) misses
system.icache.overall_misses::.cpu.inst          3089                       # number of overall misses
system.icache.overall_misses::total              3089                       # number of overall misses
system.icache.demand_miss_latency::.cpu.inst    156029000                       # number of demand (read+write) miss cycles
system.icache.demand_miss_latency::total    156029000                       # number of demand (read+write) miss cycles
system.icache.overall_miss_latency::.cpu.inst    156029000                       # number of overall miss cycles
system.icache.overall_miss_latency::total    156029000                       # number of overall miss cycles
system.icache.demand_accesses::.cpu.inst      1343981                       # number of demand (read+write) accesses
system.icache.demand_accesses::total          1343981                       # number of demand (read+write) accesses
system.icache.overall_accesses::.cpu.inst      1343981                       # number of overall (read+write) accesses
system.icache.overall_accesses::total         1343981                       # number of overall (read+write) accesses
system.icache.demand_miss_rate::.cpu.inst     0.002298                       # miss rate for demand accesses
system.icache.demand_miss_rate::total        0.002298                       # miss rate for demand accesses
system.icache.overall_miss_rate::.cpu.inst     0.002298                       # miss rate for overall accesses
system.icache.overall_miss_rate::total       0.002298                       # miss rate for overall accesses
system.icache.demand_avg_miss_latency::.cpu.inst 50511.168663                       # average overall miss latency
system.icache.demand_avg_miss_latency::total 50511.168663                       # average overall miss latency
system.icache.overall_avg_miss_latency::.cpu.inst 50511.168663                       # average overall miss latency
system.icache.overall_avg_miss_latency::total 50511.168663                       # average overall miss latency
system.icache.blocked_cycles::no_mshrs              0                       # number of cycles access was blocked
system.icache.blocked_cycles::no_targets            0                       # number of cycles access was blocked
system.icache.blocked::no_mshrs                     0                       # number of cycles access was blocked
system.icache.blocked::no_targets                   0                       # number of cycles access was blocked
system.icache.avg_blocked_cycles::no_mshrs          nan                       # average number of cycles each access was blocked
system.icache.avg_blocked_cycles::no_targets          nan                       # average number of cycles each access was blocked
system.icache.demand_mshr_misses::.cpu.inst         3089                       # number of demand (read+write) MSHR misses
system.icache.demand_mshr_misses::total          3089                       # number of demand (read+write) MSHR misses
system.icache.overall_mshr_misses::.cpu.inst         3089                       # number of overall MSHR misses
system.icache.overall_mshr_misses::total         3089                       # number of overall MSHR misses
system.icache.demand_mshr_miss_latency::.cpu.inst    149853000                       # number of demand (read+write) MSHR miss cycles
system.icache.demand_mshr_miss_latency::total    149853000                       # number of demand (read+write) MSHR miss cycles
system.icache.overall_mshr_miss_latency::.cpu.inst    149853000                       # number of overall MSHR miss cycles
system.icache.overall_mshr_miss_latency::total    149853000                       # number of overall MSHR miss cycles
system.icache.demand_mshr_miss_rate::.cpu.inst     0.002298                       # mshr miss rate for demand accesses
system.icache.demand_mshr_miss_rate::total     0.002298                       # mshr miss rate for demand accesses
system.icache.overall_mshr_miss_rate::.cpu.inst     0.002298                       # mshr miss rate for overall accesses
system.icache.overall_mshr_miss_rate::total     0.002298                       # mshr miss rate for overall accesses
system.icache.demand_avg_mshr_miss_latency::.cpu.inst 48511.816122                       # average overall mshr miss latency
system.icache.demand_avg_mshr_miss_latency::total 48511.816122                       # average overall mshr miss latency
system.icache.overall_avg_mshr_miss_latency::.cpu.inst 48511.816122                       # average overall mshr miss latency
system.icache.overall_avg_mshr_miss_latency::total 48511.816122                       # average overall mshr miss latency
system.icache.replacements                       2579                       # number of replacements
system.icache.ReadReq_hits::.cpu.inst         1340892                       # number of ReadReq hits
system.icache.ReadReq_hits::total             1340892                       # number of ReadReq hits
system.icache.ReadReq_misses::.cpu.inst          3089                       # number of ReadReq misses
system.icache.ReadReq_misses::total              3089                       # number of ReadReq misses
system.icache.ReadReq_miss_latency::.cpu.inst    156029000                       # number of ReadReq miss cycles
system.icache.ReadReq_miss_latency::total    156029000                       # number of ReadReq miss cycles
system.icache.ReadReq_accesses::.cpu.inst      1343981                       # number of ReadReq accesses(hits+misses)
system.icache.ReadReq_accesses::total         1343981                       # number of ReadReq accesses(hits+misses)
system.icache.ReadReq_miss_rate::.cpu.inst     0.002298                       # miss rate for ReadReq accesses
system.icache.ReadReq_miss_rate::total       0.002298                       # miss rate for ReadReq accesses
system.icache.ReadReq_avg_miss_latency::.cpu.inst 50511.168663                       # average ReadReq miss latency
system.icache.ReadReq_avg_miss_latency::total 50511.168663                       # average ReadReq miss latency
system.icache.ReadReq_mshr_misses::.cpu.inst         3089                       # number of ReadReq MSHR misses
system.icache.ReadReq_mshr_misses::total         3089                       # number of ReadReq MSHR misses
system.icache.ReadReq_mshr_miss_latency::.cpu.inst    149853000                       # number of ReadReq MSHR miss cycles
system.icache.ReadReq_mshr_miss_latency::total    149853000                       # number of ReadReq MSHR miss cycles
system.icache.ReadReq_mshr_miss_rate::.cpu.inst     0.002298                       # mshr miss rate for ReadReq accesses
system.icache.ReadReq_mshr_miss_rate::total     0.002298                       # mshr miss rate for ReadReq accesses
system.icache.ReadReq_avg_mshr_miss_latency::.cpu.inst 48511.816122                       # average ReadReq mshr miss latency
system.icache.ReadReq_avg_mshr_miss_latency::total 48511.816122                       # average ReadReq mshr miss latency
system.icache.power_state.pwrStateResidencyTicks::UNDEFINED   3709774000                       # Cumulative time (in ticks) in various power states
system.icache.tags.tagsinuse               485.870539                       # Cycle average of tags in use
system.icache.tags.total_refs                  272833                       # Total number of references to valid blocks.
system.icache.tags.sampled_refs                  2579                       # Sample count of references to valid blocks.
system.icache.tags.avg_refs                105.790229                       # Average number of references to valid blocks.
system.icache.tags.warmup_cycle                 81000                       # Cycle when the warmup percentage was hit.
system.icache.tags.occ_blocks::.cpu.inst   485.870539                       # Average occupied blocks per requestor
system.icache.tags.occ_percent::.cpu.inst     0.948966                       # Average percentage of cache occupancy
system.icache.tags.occ_percent::total        0.948966                       # Average percentage of cache occupancy
system.icache.tags.occ_task_id_blocks::1024          509                       # Occupied blocks per task id
system.icache.tags.age_task_id_blocks_1024::3          509                       # Occupied blocks per task id
system.icache.tags.occ_task_id_percent::1024     0.994141                       # Percentage of cache occupancy per task id
system.icache.tags.tag_accesses               1347069                       # Number of tag accesses
system.icache.tags.data_accesses              1347069                       # Number of data accesses
system.icache.tags.power_state.pwrStateResidencyTicks::UNDEFINED   3709774000                       # Cumulative time (in ticks) in various power states
system.membus.trans_dist::ReadResp               2354                       # Transaction distribution
system.membus.trans_dist::WritebackDirty           67                       # Transaction distribution
system.membus.trans_dist::CleanEvict              653                       # Transaction distribution
system.membus.trans_dist::ReadExReq              1654                       # Transaction distribution
system.membus.trans_dist::ReadExResp             1654                       # Transaction distribution
system.membus.trans_dist::ReadSharedReq          2354                       # Transaction distribution
system.membus.pkt_count_system.dynamic_cache.mem_side::system.mem_ctrl.port         8736                       # Packet count per connected master and slave (bytes)
system.membus.pkt_count_system.dynamic_cache.mem_side::total         8736                       # Packet count per connected master and slave (bytes)
system.membus.pkt_count::total                   8736                       # Packet count per connected master and slave (bytes)
system.membus.pkt_size_system.dynamic_cache.mem_side::system.mem_ctrl.port       260800                       # Cumulative packet size per connected master and slave (bytes)
system.membus.pkt_size_system.dynamic_cache.mem_side::total       260800                       # Cumulative packet size per connected master and slave (bytes)
system.membus.pkt_size::total                  260800                       # Cumulative packet size per connected master and slave (bytes)
system.membus.snoops                                0                       # Total snoops (count)
system.membus.snoopTraffic                          0                       # Total snoop traffic (bytes)
system.membus.snoop_fanout::samples              4008                       # Request fanout histogram
system.membus.snoop_fanout::mean                    0                       # Request fanout histogram
system.membus.snoop_fanout::stdev                   0                       # Request fanout histogram
system.membus.snoop_fanout::underflows              0      0.00%      0.00% # Request fanout histogram
system.membus.snoop_fanout::0                    4008    100.00%    100.00% # Request fanout histogram
system.membus.snoop_fanout::1                       0      0.00%    100.00% # Request fanout histogram
system.membus.snoop_fanout::2                       0      0.00%    100.00% # Request fanout histogram
system.membus.snoop_fanout::3                       0      0.00%    100.00% # Request fanout histogram
system.membus.snoop_fanout::overflows               0      0.00%    100.00% # Request fanout histogram
system.membus.snoop_fanout::min_value               0                       # Request fanout histogram
system.membus.snoop_fanout::max_value               0                       # Request fanout histogram
system.membus.snoop_fanout::total                4008                       # Request fanout histogram
system.membus.reqLayer2.occupancy             4996000                       # Layer occupancy (ticks)
system.membus.reqLayer2.utilization               0.1                       # Layer utilization (%)
system.membus.respLayer0.occupancy           21277000                       # Layer occupancy (ticks)
system.membus.respLayer0.utilization              0.6                       # Layer utilization (%)
system.membus.power_state.pwrStateResidencyTicks::UNDEFINED   3709774000                       # Cumulative time (in ticks) in various power states
system.mem_ctrl.bytes_read::.cpu.inst          134272                       # Number of bytes read from this memory
system.mem_ctrl.bytes_read::.cpu.data          122240                       # Number of bytes read from this memory
system.mem_ctrl.bytes_read::total              256512                       # Number of bytes read from this memory
system.mem_ctrl.bytes_inst_read::.cpu.inst       134272                       # Number of instructions bytes read from this memory
system.mem_ctrl.bytes_inst_read::total         134272                       # Number of instructions bytes read from this memory
system.mem_ctrl.bytes_written::.writebacks         4288                       # Number of bytes written to this memory
system.mem_ctrl.bytes_written::total             4288                       # Number of bytes written to this memory
system.mem_ctrl.num_reads::.cpu.inst             2098                       # Number of read requests responded to by this memory
system.mem_ctrl.num_reads::.cpu.data             1910                       # Number of read requests responded to by this memory
system.mem_ctrl.num_reads::total                 4008                       # Number of read requests responded to by this memory
system.mem_ctrl.num_writes::.writebacks            67                       # Number of write requests responded to by this memory
system.mem_ctrl.num_writes::total                  67                       # Number of write requests responded to by this memory
system.mem_ctrl.bw_read::.cpu.inst           36194119                       # Total read bandwidth from this memory (bytes/s)
system.mem_ctrl.bw_read::.cpu.data           32950794                       # Total read bandwidth from this memory (bytes/s)
system.mem_ctrl.bw_read::total               69144913                       # Total read bandwidth from this memory (bytes/s)
system.mem_ctrl.bw_inst_read::.cpu.inst      36194119                       # Instruction read bandwidth from this memory (bytes/s)
system.mem_ctrl.bw_inst_read::total          36194119                       # Instruction read bandwidth from this memory (bytes/s)
system.mem_ctrl.bw_write::.writebacks         1155866                       # Write bandwidth from this memory (bytes/s)
system.mem_ctrl.bw_write::total               1155866                       # Write bandwidth from this memory (bytes/s)
system.mem_ctrl.bw_total::.writebacks         1155866                       # Total bandwidth to/from this memory (bytes/s)
system.mem_ctrl.bw_total::.cpu.inst          36194119                       # Total bandwidth to/from this memory (bytes/s)
system.mem_ctrl.bw_total::.cpu.data          32950794                       # Total bandwidth to/from this memory (bytes/s)
system.mem_ctrl.bw_total::total              70300778                       # Total bandwidth to/from this memory (bytes/s)
system.mem_ctrl.avgPriority_.writebacks::samples        67.00                       # Average QoS priority value for accepted requests
system.mem_ctrl.avgPriority_.cpu.inst::samples      2098.00                       # Average QoS priority value for accepted requests
system.mem_ctrl.avgPriority_.cpu.data::samples      1910.00                       # Average QoS priority value for accepted requests
system.mem_ctrl.priorityMinLatency       0.000000018750                       # per QoS priority minimum request to response latency (s)
system.mem_ctrl.priorityMaxLatency       0.000392338500                       # per QoS priority maximum request to response latency (s)
system.mem_ctrl.numReadWriteTurnArounds             3                       # Number of turnarounds from READ to WRITE
system.mem_ctrl.numWriteReadTurnArounds             3                       # Number of turnarounds from WRITE to READ
system.mem_ctrl.numStayReadState                 9033                       # Number of times bus staying in READ state
system.mem_ctrl.numStayWriteState                  47                       # Number of times bus staying in WRITE state
system.mem_ctrl.readReqs                         4008                       # Number of read requests accepted
system.mem_ctrl.writeReqs                          67                       # Number of write requests accepted
system.mem_ctrl.readBursts                       4008                       # Number of DRAM read bursts, including those serviced by the write queue
system.mem_ctrl.writeBursts                        67                       # Number of DRAM write bursts, including those merged in the write queue
system.mem_ctrl.servicedByWrQ                       0                       # Number of DRAM read bursts serviced by the write queue
system.mem_ctrl.mergedWrBursts                      0                       # Number of DRAM write bursts merged with an existing one
system.mem_ctrl.neitherReadNorWriteReqs             0                       # Number of requests that are neither read nor write
system.mem_ctrl.perBankRdBursts::0                228                       # Per bank write bursts
system.mem_ctrl.perBankRdBursts::1                218                       # Per bank write bursts
system.mem_ctrl.perBankRdBursts::2                346                       # Per bank write bursts
system.mem_ctrl.perBankRdBursts::3                247                       # Per bank write bursts
system.mem_ctrl.perBankRdBursts::4                209                       # Per bank write bursts
system.mem_ctrl.perBankRdBursts::5                227                       # Per bank write bursts
system.mem_ctrl.perBankRdBursts::6                296                       # Per bank write bursts
system.mem_ctrl.perBankRdBursts::7                231                       # Per bank write bursts
system.mem_ctrl.perBankRdBursts::8                265                       # Per bank write bursts
system.mem_ctrl.perBankRdBursts::9                223                       # Per bank write bursts
system.mem_ctrl.perBankRdBursts::10               200                       # Per bank write bursts
system.mem_ctrl.perBankRdBursts::11               302                       # Per bank write bursts
system.mem_ctrl.perBankRdBursts::12               365                       # Per bank write bursts
system.mem_ctrl.perBankRdBursts::13               232                       # Per bank write bursts
system.mem_ctrl.perBankRdBursts::14               252                       # Per bank write bursts
system.mem_ctrl.perBankRdBursts::15               167                       # Per bank write bursts
system.mem_ctrl.perBankWrBursts::0                  0                       # Per bank write bursts
system.mem_ctrl.perBankWrBursts::1                  0                       # Per bank write bursts
system.mem_ctrl.perBankWrBursts::2                 12                       # Per bank write bursts
system.mem_ctrl.perBankWrBursts::3                  2                       # Per bank write bursts
system.mem_ctrl.perBankWrBursts::4                 20                       # Per bank write bursts
system.mem_ctrl.perBankWrBursts::5                 12                       # Per bank write bursts
system.mem_ctrl.perBankWrBursts::6                  2                       # Per bank write bursts
system.mem_ctrl.perBankWrBursts::7                  1                       # Per bank write bursts
system.mem_ctrl.perBankWrBursts::8                  0                       # Per bank write bursts
system.mem_ctrl.perBankWrBursts::9                  0                       # Per bank write bursts
system.mem_ctrl.perBankWrBursts::10                 1                       # Per bank write bursts
system.mem_ctrl.perBankWrBursts::11                 0                       # Per bank write bursts
system.mem_ctrl.perBankWrBursts::12                 0                       # Per bank write bursts
system.mem_ctrl.perBankWrBursts::13                 0                       # Per bank write bursts
system.mem_ctrl.perBankWrBursts::14                 0                       # Per bank write bursts
system.mem_ctrl.perBankWrBursts::15                 0                       # Per bank write bursts
system.mem_ctrl.avgRdQLen                        1.00                       # Average read queue length when enqueuing
system.mem_ctrl.avgWrQLen                       13.13                       # Average write queue length when enqueuing
system.mem_ctrl.totQLat                      26598750                       # Total ticks spent queuing
system.mem_ctrl.totBusLat                    20040000                       # Total ticks spent in databus transfers
system.mem_ctrl.totMemAccLat                101748750                       # Total ticks spent from burst creation until serviced by the DRAM
system.mem_ctrl.avgQLat                       6636.41                       # Average queueing delay per DRAM burst
system.mem_ctrl.avgBusLat                     5000.00                       # Average bus latency per DRAM burst
system.mem_ctrl.avgMemAccLat                 25386.41                       # Average memory access latency per DRAM burst
system.mem_ctrl.numRdRetry                          0                       # Number of times read queue was full causing retry
system.mem_ctrl.numWrRetry                          0                       # Number of times write queue was full causing retry
system.mem_ctrl.readRowHits                      3186                       # Number of row buffer hits during reads
system.mem_ctrl.writeRowHits                       40                       # Number of row buffer hits during writes
system.mem_ctrl.readRowHitRate                  79.49                       # Row buffer hit rate for reads
system.mem_ctrl.writeRowHitRate                 59.70                       # Row buffer hit rate for writes
system.mem_ctrl.readPktSize::0                      0                       # Read request sizes (log2)
system.mem_ctrl.readPktSize::1                      0                       # Read request sizes (log2)
system.mem_ctrl.readPktSize::2                      0                       # Read request sizes (log2)
system.mem_ctrl.readPktSize::3                      0                       # Read request sizes (log2)
system.mem_ctrl.readPktSize::4                      0                       # Read request sizes (log2)
system.mem_ctrl.readPktSize::5                      0                       # Read request sizes (log2)
system.mem_ctrl.readPktSize::6                   4008                       # Read request sizes (log2)
system.mem_ctrl.writePktSize::0                     0                       # Write request sizes (log2)
system.mem_ctrl.writePktSize::1                     0                       # Write request sizes (log2)
system.mem_ctrl.writePktSize::2                     0                       # Write request sizes (log2)
system.mem_ctrl.writePktSize::3                     0                       # Write request sizes (log2)
system.mem_ctrl.writePktSize::4                     0                       # Write request sizes (log2)
system.mem_ctrl.writePktSize::5                     0                       # Write request sizes (log2)
system.mem_ctrl.writePktSize::6                    67                       # Write request sizes (log2)
system.mem_ctrl.rdQLenPdf::0                     4007                       # What read queue length does an incoming req see
system.mem_ctrl.rdQLenPdf::1                        1                       # What read queue length does an incoming req see
system.mem_ctrl.rdQLenPdf::2                        0                       # What read queue length does an incoming req see
system.mem_ctrl.rdQLenPdf::3                        0                       # What read queue length does an incoming req see
system.mem_ctrl.rdQLenPdf::4                        0                       # What read queue length does an incoming req see
system.mem_ctrl.rdQLenPdf::5                        0                       # What read queue length does an incoming req see
system.mem_ctrl.rdQLenPdf::6                        0                       # What read queue length does an incoming req see
system.mem_ctrl.rdQLenPdf::7                        0                       # What read queue length does an incoming req see
system.mem_ctrl.rdQLenPdf::8                        0                       # What read queue length does an incoming req see
system.mem_ctrl.rdQLenPdf::9                        0                       # What read queue length does an incoming req see
system.mem_ctrl.rdQLenPdf::10                       0                       # What read queue length does an incoming req see
system.mem_ctrl.rdQLenPdf::11                       0                       # What read queue length does an incoming req see
system.mem_ctrl.rdQLenPdf::12                       0                       # What read queue length does an incoming req see
system.mem_ctrl.rdQLenPdf::13                       0                       # What read queue length does an incoming req see
system.mem_ctrl.rdQLenPdf::14                       0                       # What read queue length does an incoming req see
system.mem_ctrl.rdQLenPdf::15                       0                       # What read queue length does an incoming req see
system.mem_ctrl.rdQLenPdf::16                       0                       # What read queue length does an incoming req see
system.mem_ctrl.rdQLenPdf::17                       0                       # What read queue length does an incoming req see
system.mem_ctrl.rdQLenPdf::18                       0                       # What read queue length does an incoming req see
system.mem_ctrl.rdQLenPdf::19                       0                       # What read queue length does an incoming req see
system.mem_ctrl.rdQLenPdf::20                       0                       # What read queue length does an incoming req see
system.mem_ctrl.rdQLenPdf::21                       0                       # What read queue length does an incoming req see
system.mem_ctrl.rdQLenPdf::22                       0                       # What read queue length does an incoming req see
system.mem_ctrl.rdQLenPdf::23                       0                       # What read queue length does an incoming req see
system.mem_ctrl.rdQLenPdf::24                       0                       # What read queue length does an incoming req see
system.mem_ctrl.rdQLenPdf::25                       0                       # What read queue length does an incoming req see
system.mem_ctrl.rdQLenPdf::26                       0                       # What read queue length does an incoming req see
system.mem_ctrl.rdQLenPdf::27                       0                       # What read queue length does an incoming req see
system.mem_ctrl.rdQLenPdf::28                       0                       # What read queue length does an incoming req see
system.mem_ctrl.rdQLenPdf::29                       0                       # What read queue length does an incoming req see
system.mem_ctrl.rdQLenPdf::30                       0                       # What read queue length does an incoming req see
system.mem_ctrl.rdQLenPdf::31                       0                       # What read queue length does an incoming req see
system.mem_ctrl.wrQLenPdf::0                        1                       # What write queue length does an incoming req see
system.mem_ctrl.wrQLenPdf::1                        1                       # What write queue length does an incoming req see
system.mem_ctrl.wrQLenPdf::2                        1                       # What write queue length does an incoming req see
system.mem_ctrl.wrQLenPdf::3                        1                       # What write queue length does an incoming req see
system.mem_ctrl.wrQLenPdf::4                        1                       # What write queue length does an incoming req see
system.mem_ctrl.wrQLenPdf::5                        1                       # What write queue length does an incoming req see
system.mem_ctrl.wrQLenPdf::6                        1                       # What write queue length does an incoming req see
system.mem_ctrl.wrQLenPdf::7                        1                       # What write queue length does an incoming req see
system.mem_ctrl.wrQLenPdf::8                        1                       # What write queue length does an incoming req see
system.mem_ctrl.wrQLenPdf::9                        1                       # What write queue length does an incoming req see
system.mem_ctrl.wrQLenPdf::10                       1                       # What write queue length does an incoming req see
system.mem_ctrl.wrQLenPdf::11                       1                       # What write queue length does an incoming req see
system.mem_ctrl.wrQLenPdf::12                       1                       # What write queue length does an incoming req see
system.mem_ctrl.wrQLenPdf::13                       1                       # What write queue length does an incoming req see
system.mem_ctrl.wrQLenPdf::14                       1                       # What write queue length does an incoming req see
system.mem_ctrl.wrQLenPdf::15                       2                       # What write queue length does an incoming req see
system.mem_ctrl.wrQLenPdf::16                       2                       # What write queue length does an incoming req see
system.mem_ctrl.wrQLenPdf::17                       3                       # What write queue length does an incoming req see
system.mem_ctrl.wrQLenPdf::18                       3                       # What write queue length does an incoming req see
system.mem_ctrl.wrQLenPdf::19                       3                       # What write queue length does an incoming req see
system.mem_ctrl.wrQLenPdf::20                       3                       # What write queue length does an incoming req see
system.mem_ctrl.wrQLenPdf::21                       3                       # What write queue length does an incoming req see
system.mem_ctrl.wrQLenPdf::22                       3                       # What write queue length does an incoming req see
system.mem_ctrl.wrQLenPdf::23                       3                       # What write queue length does an incoming req see
system.mem_ctrl.wrQLenPdf::24                       3                       # What write queue length does an incoming req see
system.mem_ctrl.wrQLenPdf::25                       3                       # What write queue length does an incoming req see
system.mem_ctrl.wrQLenPdf::26                       3                       # What write queue length does an incoming req see
system.mem_ctrl.wrQLenPdf::27                       3                       # What write queue length does an incoming req see
system.mem_ctrl.wrQLenPdf::28                       3                       # What write queue length does an incoming req see
system.mem_ctrl.wrQLenPdf::29                       3                       # What write queue length does an incoming req see
system.mem_ctrl.wrQLenPdf::30                       3                       # What write queue length does an incoming req see
system.mem_ctrl.wrQLenPdf::31                       3                       # What write queue length does an incoming req see
system.mem_ctrl.wrQLenPdf::32                       3                       # What write queue length does an incoming req see
system.mem_ctrl.wrQLenPdf::33                       0                       # What write queue length does an incoming req see
system.mem_ctrl.wrQLenPdf::34                       0                       # What write queue length does an incoming req see
system.mem_ctrl.wrQLenPdf::35                       0                       # What write queue length does an incoming req see
system.mem_ctrl.wrQLenPdf::36                       0                       # What write queue length does an incoming req see
system.mem_ctrl.wrQLenPdf::37                       0                       # What write queue length does an incoming req see
system.mem_ctrl.wrQLenPdf::38                       0                       # What write queue length does an incoming req see
system.mem_ctrl.wrQLenPdf::39                       0                       # What write queue length does an incoming req see
system.mem_ctrl.wrQLenPdf::40                       0                       # What write queue length does an incoming req see
system.mem_ctrl.wrQLenPdf::41                       0                       # What write queue length does an incoming req see
system.mem_ctrl.wrQLenPdf::42                       0                       # What write queue length does an incoming req see
system.mem_ctrl.wrQLenPdf::43                       0                       # What write queue length does an incoming req see
system.mem_ctrl.wrQLenPdf::44                       0                       # What write queue length does an incoming req see
system.mem_ctrl.wrQLenPdf::45                       0                       # What write queue length does an incoming req see
system.mem_ctrl.wrQLenPdf::46                       0                       # What write queue length does an incoming req see
system.mem_ctrl.wrQLenPdf::47                       0                       # What write queue length does an incoming req see
system.mem_ctrl.wrQLenPdf::48                       0                       # What write queue length does an incoming req see
system.mem_ctrl.wrQLenPdf::49                       0                       # What write queue length does an incoming req see
system.mem_ctrl.wrQLenPdf::50                       0                       # What write queue length does an incoming req see
system.mem_ctrl.wrQLenPdf::51                       0                       # What write queue length does an incoming req see
system.mem_ctrl.wrQLenPdf::52                       0                       # What write queue length does an incoming req see
system.mem_ctrl.wrQLenPdf::53                       0                       # What write queue length does an incoming req see
system.mem_ctrl.wrQLenPdf::54                       0                       # What write queue length does an incoming req see
system.mem_ctrl.wrQLenPdf::55                       0                       # What write queue length does an incoming req see
system.mem_ctrl.wrQLenPdf::56                       0                       # What write queue length does an incoming req see
system.mem_ctrl.wrQLenPdf::57                       0                       # What write queue length does an incoming req see
system.mem_ctrl.wrQLenPdf::58                       0                       # What write queue length does an incoming req see
system.mem_ctrl.wrQLenPdf::59                       0                       # What write queue length does an incoming req see
system.mem_ctrl.wrQLenPdf::60                       0                       # What write queue length does an incoming req see
system.mem_ctrl.wrQLenPdf::61                       0                       # What write queue length does an incoming req see
system.mem_ctrl.wrQLenPdf::62                       0                       # What write queue length does an incoming req see
system.mem_ctrl.wrQLenPdf::63                       0                       # What write queue length does an incoming req see
system.mem_ctrl.bytesPerActivate::samples          832                       # Bytes accessed per row activation
system.mem_ctrl.bytesPerActivate::mean     312.153846                       # Bytes accessed per row activation
system.mem_ctrl.bytesPerActivate::gmean    200.723035                       # Bytes accessed per row activation
system.mem_ctrl.bytesPerActivate::stdev    302.635444                       # Bytes accessed per row activation
system.mem_ctrl.bytesPerActivate::0-127           231     27.76%     27.76% # Bytes accessed per row activation
system.mem_ctrl.bytesPerActivate::128-255          231     27.76%     55.53% # Bytes accessed per row activation
system.mem_ctrl.bytesPerActivate::256-383          134     16.11%     71.63% # Bytes accessed per row activation
system.mem_ctrl.bytesPerActivate::384-511           59      7.09%     78.73% # Bytes accessed per row activation
system.mem_ctrl.bytesPerActivate::512-639           32      3.85%     82.57% # Bytes accessed per row activation
system.mem_ctrl.bytesPerActivate::640-767           31      3.73%     86.30% # Bytes accessed per row activation
system.mem_ctrl.bytesPerActivate::768-895           24      2.88%     89.18% # Bytes accessed per row activation
system.mem_ctrl.bytesPerActivate::896-1023           15      1.80%     90.99% # Bytes accessed per row activation
system.mem_ctrl.bytesPerActivate::1024-1151           75      9.01%    100.00% # Bytes accessed per row activation
system.mem_ctrl.bytesPerActivate::total           832                       # Bytes accessed per row activation
system.mem_ctrl.rdPerTurnAround::samples            3                       # Reads before turning the bus around for writes
system.mem_ctrl.rdPerTurnAround::mean     1178.666667                       # Reads before turning the bus around for writes
system.mem_ctrl.rdPerTurnAround::gmean     373.945577                       # Reads before turning the bus around for writes
system.mem_ctrl.rdPerTurnAround::stdev    1700.356531                       # Reads before turning the bus around for writes
system.mem_ctrl.rdPerTurnAround::0-127              1     33.33%     33.33% # Reads before turning the bus around for writes
system.mem_ctrl.rdPerTurnAround::256-383            1     33.33%     66.67% # Reads before turning the bus around for writes
system.mem_ctrl.rdPerTurnAround::3072-3199            1     33.33%    100.00% # Reads before turning the bus around for writes
system.mem_ctrl.rdPerTurnAround::total              3                       # Reads before turning the bus around for writes
system.mem_ctrl.wrPerTurnAround::samples            3                       # Writes before turning the bus around for reads
system.mem_ctrl.wrPerTurnAround::mean       16.666667                       # Writes before turning the bus around for reads
system.mem_ctrl.wrPerTurnAround::gmean      16.640671                       # Writes before turning the bus around for reads
system.mem_ctrl.wrPerTurnAround::stdev       1.154701                       # Writes before turning the bus around for reads
system.mem_ctrl.wrPerTurnAround::16                 2     66.67%     66.67% # Writes before turning the bus around for reads
system.mem_ctrl.wrPerTurnAround::18                 1     33.33%    100.00% # Writes before turning the bus around for reads
system.mem_ctrl.wrPerTurnAround::total              3                       # Writes before turning the bus around for reads
system.mem_ctrl.bytesReadDRAM                  256512                       # Total number of bytes read from DRAM
system.mem_ctrl.bytesReadWrQ                        0                       # Total number of bytes read from write queue
system.mem_ctrl.bytesWritten                     3200                       # Total number of bytes written to DRAM
system.mem_ctrl.bytesReadSys                   256512                       # Total read bytes from the system interface side
system.mem_ctrl.bytesWrittenSys                  4288                       # Total written bytes from the system interface side
system.mem_ctrl.avgRdBW                         69.14                       # Average DRAM read bandwidth in MiByte/s
system.mem_ctrl.avgWrBW                          0.86                       # Average achieved write bandwidth in MiByte/s
system.mem_ctrl.avgRdBWSys                      69.14                       # Average system read bandwidth in MiByte/s
system.mem_ctrl.avgWrBWSys                       1.16                       # Average system write bandwidth in MiByte/s
system.mem_ctrl.peakBW                       12800.00                       # Theoretical peak bandwidth in MiByte/s
system.mem_ctrl.busUtil                          0.55                       # Data bus utilization in percentage
system.mem_ctrl.busUtilRead                      0.54                       # Data bus utilization in percentage for reads
system.mem_ctrl.busUtilWrite                     0.01                       # Data bus utilization in percentage for writes
system.mem_ctrl.totGap                     1404144000                       # Total gap between requests
system.mem_ctrl.avgGap                      344575.21                       # Average gap between requests
system.mem_ctrl.masterReadBytes::.cpu.inst       134272                       # Per-master bytes read from memory
system.mem_ctrl.masterReadBytes::.cpu.data       122240                       # Per-master bytes read from memory
system.mem_ctrl.masterWriteBytes::.writebacks         3200                       # Per-master bytes write to memory
system.mem_ctrl.masterReadRate::.cpu.inst 36194118.563556700945                       # Per-master bytes read from memory rate (Bytes/sec)
system.mem_ctrl.masterReadRate::.cpu.data 32950794.307146474719                       # Per-master bytes read from memory rate (Bytes/sec)
system.mem_ctrl.masterWriteRate::.writebacks 862586.238406975754                       # Per-master bytes write to memory rate (Bytes/sec)
system.mem_ctrl.masterReadAccesses::.cpu.inst         2098                       # Per-master read serviced memory accesses
system.mem_ctrl.masterReadAccesses::.cpu.data         1910                       # Per-master read serviced memory accesses
system.mem_ctrl.masterWriteAccesses::.writebacks           67                       # Per-master write serviced memory accesses
system.mem_ctrl.masterReadTotalLat::.cpu.inst     54195000                       # Per-master read total memory access latency
system.mem_ctrl.masterReadTotalLat::.cpu.data     47553750                       # Per-master read total memory access latency
system.mem_ctrl.masterWriteTotalLat::.writebacks   3750932500                       # Per-master write total memory access latency
system.mem_ctrl.masterReadAvgLat::.cpu.inst     25831.74                       # Per-master read average memory access latency
system.mem_ctrl.masterReadAvgLat::.cpu.data     24897.25                       # Per-master read average memory access latency
system.mem_ctrl.masterWriteAvgLat::.writebacks  55984067.16                       # Per-master write average memory access latency
system.mem_ctrl.pageHitRate                     79.17                       # Row buffer hit rate, read and write combined
system.mem_ctrl.rank1.actEnergy               3077340                       # Energy for activate commands per rank (pJ)
system.mem_ctrl.rank1.preEnergy               1635645                       # Energy for precharge commands per rank (pJ)
system.mem_ctrl.rank1.readEnergy             14322840                       # Energy for read commands per rank (pJ)
system.mem_ctrl.rank1.writeEnergy                5220                       # Energy for write commands per rank (pJ)
system.mem_ctrl.rank1.refreshEnergy      292568640.000000                       # Energy for refresh commands per rank (pJ)
system.mem_ctrl.rank1.actBackEnergy         384622890                       # Energy for active background per rank (pJ)
system.mem_ctrl.rank1.preBackEnergy        1100660640                       # Energy for precharge background per rank (pJ)
system.mem_ctrl.rank1.actPowerDownEnergy            0                       # Energy for active power-down per rank (pJ)
system.mem_ctrl.rank1.prePowerDownEnergy            0                       # Energy for precharge power-down per rank (pJ)
system.mem_ctrl.rank1.selfRefreshEnergy             0                       # Energy for self refresh per rank (pJ)
system.mem_ctrl.rank1.totalEnergy          1796893215                       # Total energy per rank (pJ)
system.mem_ctrl.rank1.averagePower         484.367300                       # Core power per rank (mW)
system.mem_ctrl.rank1.totalIdleTime                 0                       # Total Idle time Per DRAM Rank
system.mem_ctrl.rank1.memoryStateTime::IDLE   2857634500                       # Time in different power states
system.mem_ctrl.rank1.memoryStateTime::REF    123760000                       # Time in different power states
system.mem_ctrl.rank1.memoryStateTime::SREF            0                       # Time in different power states
system.mem_ctrl.rank1.memoryStateTime::PRE_PDN            0                       # Time in different power states
system.mem_ctrl.rank1.memoryStateTime::ACT    728379500                       # Time in different power states
system.mem_ctrl.rank1.memoryStateTime::ACT_PDN            0                       # Time in different power states
system.mem_ctrl.rank0.actEnergy               2863140                       # Energy for activate commands per rank (pJ)
system.mem_ctrl.rank0.preEnergy               1521795                       # Energy for precharge commands per rank (pJ)
system.mem_ctrl.rank0.readEnergy             14294280                       # Energy for read commands per rank (pJ)
system.mem_ctrl.rank0.writeEnergy              255780                       # Energy for write commands per rank (pJ)
system.mem_ctrl.rank0.refreshEnergy      292568640.000000                       # Energy for refresh commands per rank (pJ)
system.mem_ctrl.rank0.actBackEnergy         367447080                       # Energy for active background per rank (pJ)
system.mem_ctrl.rank0.preBackEnergy        1115124480                       # Energy for precharge background per rank (pJ)
system.mem_ctrl.rank0.actPowerDownEnergy            0                       # Energy for active power-down per rank (pJ)
system.mem_ctrl.rank0.prePowerDownEnergy            0                       # Energy for precharge power-down per rank (pJ)
system.mem_ctrl.rank0.selfRefreshEnergy             0                       # Energy for self refresh per rank (pJ)
system.mem_ctrl.rank0.totalEnergy          1794075195                       # Total energy per rank (pJ)
system.mem_ctrl.rank0.averagePower         483.607679                       # Core power per rank (mW)
system.mem_ctrl.rank0.totalIdleTime                 0                       # Total Idle time Per DRAM Rank
system.mem_ctrl.rank0.memoryStateTime::IDLE   2895624750                       # Time in different power states
system.mem_ctrl.rank0.memoryStateTime::REF    123760000                       # Time in different power states
system.mem_ctrl.rank0.memoryStateTime::SREF            0                       # Time in different power states
system.mem_ctrl.rank0.memoryStateTime::PRE_PDN            0                       # Time in different power states
system.mem_ctrl.rank0.memoryStateTime::ACT    690389250                       # Time in different power states
system.mem_ctrl.rank0.memoryStateTime::ACT_PDN            0                       # Time in different power states
system.mem_ctrl.power_state.pwrStateResidencyTicks::UNDEFINED   3709774000                       # Cumulative time (in ticks) in various power states
system.cache_medium.blocked_cycles::no_mshrs            0                       # number of cycles access was blocked
system.cache_medium.blocked_cycles::no_targets            0                       # number of cycles access was blocked
system.cache_medium.blocked::no_mshrs               0                       # number of cycles access was blocked
system.cache_medium.blocked::no_targets             0                       # number of cycles access was blocked
system.cache_medium.avg_blocked_cycles::no_mshrs          nan                       # average number of cycles each access was blocked
system.cache_medium.avg_blocked_cycles::no_targets          nan                       # average number of cycles each access was blocked
system.cache_medium.replacements                    0                       # number of replacements
system.cache_medium.power_state.pwrStateResidencyTicks::UNDEFINED   3709774000                       # Cumulative time (in ticks) in various power states
system.cache_medium.tags.tagsinuse                  0                       # Cycle average of tags in use
system.cache_medium.tags.total_refs                 0                       # Total number of references to valid blocks.
system.cache_medium.tags.sampled_refs               0                       # Sample count of references to valid blocks.
system.cache_medium.tags.avg_refs                 nan                       # Average number of references to valid blocks.
system.cache_medium.tags.warmup_cycle               0                       # Cycle when the warmup percentage was hit.
system.cache_medium.tags.tag_accesses               0                       # Number of tag accesses
system.cache_medium.tags.data_accesses              0                       # Number of data accesses
system.cache_medium.tags.power_state.pwrStateResidencyTicks::UNDEFINED   3709774000                       # Cumulative time (in ticks) in various power states
system.clk_domain.clock                          1000                       # Clock period in ticks
system.clk_domain.voltage_domain.voltage            1                       # Voltage in Volts
system.dcache.demand_hits::.cpu.data           353746                       # number of demand (read+write) hits
system.dcache.demand_hits::total               353746                       # number of demand (read+write) hits
system.dcache.overall_hits::.cpu.data          353802                       # number of overall hits
system.dcache.overall_hits::total              353802                       # number of overall hits
system.dcache.demand_misses::.cpu.data           4462                       # number of demand (read+write) misses
system.dcache.demand_misses::total               4462                       # number of demand (read+write) misses
system.dcache.overall_misses::.cpu.data          4479                       # number of overall misses
system.dcache.overall_misses::total              4479                       # number of overall misses
system.dcache.demand_miss_latency::.cpu.data    157941000                       # number of demand (read+write) miss cycles
system.dcache.demand_miss_latency::total    157941000                       # number of demand (read+write) miss cycles
system.dcache.overall_miss_latency::.cpu.data    157941000                       # number of overall miss cycles
system.dcache.overall_miss_latency::total    157941000                       # number of overall miss cycles
system.dcache.demand_accesses::.cpu.data       358208                       # number of demand (read+write) accesses
system.dcache.demand_accesses::total           358208                       # number of demand (read+write) accesses
system.dcache.overall_accesses::.cpu.data       358281                       # number of overall (read+write) accesses
system.dcache.overall_accesses::total          358281                       # number of overall (read+write) accesses
system.dcache.demand_miss_rate::.cpu.data     0.012456                       # miss rate for demand accesses
system.dcache.demand_miss_rate::total        0.012456                       # miss rate for demand accesses
system.dcache.overall_miss_rate::.cpu.data     0.012501                       # miss rate for overall accesses
system.dcache.overall_miss_rate::total       0.012501                       # miss rate for overall accesses
system.dcache.demand_avg_miss_latency::.cpu.data 35396.907216                       # average overall miss latency
system.dcache.demand_avg_miss_latency::total 35396.907216                       # average overall miss latency
system.dcache.overall_avg_miss_latency::.cpu.data 35262.558607                       # average overall miss latency
system.dcache.overall_avg_miss_latency::total 35262.558607                       # average overall miss latency
system.dcache.blocked_cycles::no_mshrs              0                       # number of cycles access was blocked
system.dcache.blocked_cycles::no_targets            0                       # number of cycles access was blocked
system.dcache.blocked::no_mshrs                     0                       # number of cycles access was blocked
system.dcache.blocked::no_targets                   0                       # number of cycles access was blocked
system.dcache.avg_blocked_cycles::no_mshrs          nan                       # average number of cycles each access was blocked
system.dcache.avg_blocked_cycles::no_targets          nan                       # average number of cycles each access was blocked
system.dcache.writebacks::.writebacks            3266                       # number of writebacks
system.dcache.writebacks::total                  3266                       # number of writebacks
system.dcache.demand_mshr_misses::.cpu.data         4462                       # number of demand (read+write) MSHR misses
system.dcache.demand_mshr_misses::total          4462                       # number of demand (read+write) MSHR misses
system.dcache.overall_mshr_misses::.cpu.data         4474                       # number of overall MSHR misses
system.dcache.overall_mshr_misses::total         4474                       # number of overall MSHR misses
system.dcache.demand_mshr_miss_latency::.cpu.data    149017000                       # number of demand (read+write) MSHR miss cycles
system.dcache.demand_mshr_miss_latency::total    149017000                       # number of demand (read+write) MSHR miss cycles
system.dcache.overall_mshr_miss_latency::.cpu.data    149547000                       # number of overall MSHR miss cycles
system.dcache.overall_mshr_miss_latency::total    149547000                       # number of overall MSHR miss cycles
system.dcache.demand_mshr_miss_rate::.cpu.data     0.012456                       # mshr miss rate for demand accesses
system.dcache.demand_mshr_miss_rate::total     0.012456                       # mshr miss rate for demand accesses
system.dcache.overall_mshr_miss_rate::.cpu.data     0.012487                       # mshr miss rate for overall accesses
system.dcache.overall_mshr_miss_rate::total     0.012487                       # mshr miss rate for overall accesses
system.dcache.demand_avg_mshr_miss_latency::.cpu.data 33396.907216                       # average overall mshr miss latency
system.dcache.demand_avg_mshr_miss_latency::total 33396.907216                       # average overall mshr miss latency
system.dcache.overall_avg_mshr_miss_latency::.cpu.data 33425.793473                       # average overall mshr miss latency
system.dcache.overall_avg_mshr_miss_latency::total 33425.793473                       # average overall mshr miss latency
system.dcache.replacements                       3962                       # number of replacements
system.dcache.ReadReq_hits::.cpu.data          245236                       # number of ReadReq hits
system.dcache.ReadReq_hits::total              245236                       # number of ReadReq hits
system.dcache.ReadReq_misses::.cpu.data          2095                       # number of ReadReq misses
system.dcache.ReadReq_misses::total              2095                       # number of ReadReq misses
system.dcache.ReadReq_miss_latency::.cpu.data     38962000                       # number of ReadReq miss cycles
system.dcache.ReadReq_miss_latency::total     38962000                       # number of ReadReq miss cycles
system.dcache.ReadReq_accesses::.cpu.data       247331                       # number of ReadReq accesses(hits+misses)
system.dcache.ReadReq_accesses::total          247331                       # number of ReadReq accesses(hits+misses)
system.dcache.ReadReq_miss_rate::.cpu.data     0.008470                       # miss rate for ReadReq accesses
system.dcache.ReadReq_miss_rate::total       0.008470                       # miss rate for ReadReq accesses
system.dcache.ReadReq_avg_miss_latency::.cpu.data 18597.613365                       # average ReadReq miss latency
system.dcache.ReadReq_avg_miss_latency::total 18597.613365                       # average ReadReq miss latency
system.dcache.ReadReq_mshr_misses::.cpu.data         2095                       # number of ReadReq MSHR misses
system.dcache.ReadReq_mshr_misses::total         2095                       # number of ReadReq MSHR misses
system.dcache.ReadReq_mshr_miss_latency::.cpu.data     34772000                       # number of ReadReq MSHR miss cycles
system.dcache.ReadReq_mshr_miss_latency::total     34772000                       # number of ReadReq MSHR miss cycles
system.dcache.ReadReq_mshr_miss_rate::.cpu.data     0.008470                       # mshr miss rate for ReadReq accesses
system.dcache.ReadReq_mshr_miss_rate::total     0.008470                       # mshr miss rate for ReadReq accesses
system.dcache.ReadReq_avg_mshr_miss_latency::.cpu.data 16597.613365                       # average ReadReq mshr miss latency
system.dcache.ReadReq_avg_mshr_miss_latency::total 16597.613365                       # average ReadReq mshr miss latency
system.dcache.WriteReq_hits::.cpu.data         108510                       # number of WriteReq hits
system.dcache.WriteReq_hits::total             108510                       # number of WriteReq hits
system.dcache.WriteReq_misses::.cpu.data         2367                       # number of WriteReq misses
system.dcache.WriteReq_misses::total             2367                       # number of WriteReq misses
system.dcache.WriteReq_miss_latency::.cpu.data    118979000                       # number of WriteReq miss cycles
system.dcache.WriteReq_miss_latency::total    118979000                       # number of WriteReq miss cycles
system.dcache.WriteReq_accesses::.cpu.data       110877                       # number of WriteReq accesses(hits+misses)
system.dcache.WriteReq_accesses::total         110877                       # number of WriteReq accesses(hits+misses)
system.dcache.WriteReq_miss_rate::.cpu.data     0.021348                       # miss rate for WriteReq accesses
system.dcache.WriteReq_miss_rate::total      0.021348                       # miss rate for WriteReq accesses
system.dcache.WriteReq_avg_miss_latency::.cpu.data 50265.737220                       # average WriteReq miss latency
system.dcache.WriteReq_avg_miss_latency::total 50265.737220                       # average WriteReq miss latency
system.dcache.WriteReq_mshr_misses::.cpu.data         2367                       # number of WriteReq MSHR misses
system.dcache.WriteReq_mshr_misses::total         2367                       # number of WriteReq MSHR misses
system.dcache.WriteReq_mshr_miss_latency::.cpu.data    114245000                       # number of WriteReq MSHR miss cycles
system.dcache.WriteReq_mshr_miss_latency::total    114245000                       # number of WriteReq MSHR miss cycles
system.dcache.WriteReq_mshr_miss_rate::.cpu.data     0.021348                       # mshr miss rate for WriteReq accesses
system.dcache.WriteReq_mshr_miss_rate::total     0.021348                       # mshr miss rate for WriteReq accesses
system.dcache.WriteReq_avg_mshr_miss_latency::.cpu.data 48265.737220                       # average WriteReq mshr miss latency
system.dcache.WriteReq_avg_mshr_miss_latency::total 48265.737220                       # average WriteReq mshr miss latency
system.dcache.SoftPFReq_hits::.cpu.data            56                       # number of SoftPFReq hits
system.dcache.SoftPFReq_hits::total                56                       # number of SoftPFReq hits
system.dcache.SoftPFReq_misses::.cpu.data           17                       # number of SoftPFReq misses
system.dcache.SoftPFReq_misses::total              17                       # number of SoftPFReq misses
system.dcache.SoftPFReq_accesses::.cpu.data           73                       # number of SoftPFReq accesses(hits+misses)
system.dcache.SoftPFReq_accesses::total            73                       # number of SoftPFReq accesses(hits+misses)
system.dcache.SoftPFReq_miss_rate::.cpu.data     0.232877                       # miss rate for SoftPFReq accesses
system.dcache.SoftPFReq_miss_rate::total     0.232877                       # miss rate for SoftPFReq accesses
system.dcache.SoftPFReq_mshr_misses::.cpu.data           12                       # number of SoftPFReq MSHR misses
system.dcache.SoftPFReq_mshr_misses::total           12                       # number of SoftPFReq MSHR misses
system.dcache.SoftPFReq_mshr_miss_latency::.cpu.data       530000                       # number of SoftPFReq MSHR miss cycles
system.dcache.SoftPFReq_mshr_miss_latency::total       530000                       # number of SoftPFReq MSHR miss cycles
system.dcache.SoftPFReq_mshr_miss_rate::.cpu.data     0.164384                       # mshr miss rate for SoftPFReq accesses
system.dcache.SoftPFReq_mshr_miss_rate::total     0.164384                       # mshr miss rate for SoftPFReq accesses
system.dcache.SoftPFReq_avg_mshr_miss_latency::.cpu.data 44166.666667                       # average SoftPFReq mshr miss latency
system.dcache.SoftPFReq_avg_mshr_miss_latency::total 44166.666667                       # average SoftPFReq mshr miss latency
system.dcache.power_state.pwrStateResidencyTicks::UNDEFINED   3709774000                       # Cumulative time (in ticks) in various power states
system.dcache.tags.tagsinuse               474.727052                       # Cycle average of tags in use
system.dcache.tags.total_refs                  144502                       # Total number of references to valid blocks.
system.dcache.tags.sampled_refs                  3962                       # Sample count of references to valid blocks.
system.dcache.tags.avg_refs                 36.471984                       # Average number of references to valid blocks.
system.dcache.tags.warmup_cycle                165000                       # Cycle when the warmup percentage was hit.
system.dcache.tags.occ_blocks::.cpu.data   474.727052                       # Average occupied blocks per requestor
system.dcache.tags.occ_percent::.cpu.data     0.927201                       # Average percentage of cache occupancy
system.dcache.tags.occ_percent::total        0.927201                       # Average percentage of cache occupancy
system.dcache.tags.occ_task_id_blocks::1024          512                       # Occupied blocks per task id
system.dcache.tags.age_task_id_blocks_1024::0            4                       # Occupied blocks per task id
system.dcache.tags.age_task_id_blocks_1024::1            3                       # Occupied blocks per task id
system.dcache.tags.age_task_id_blocks_1024::2           12                       # Occupied blocks per task id
system.dcache.tags.age_task_id_blocks_1024::3          493                       # Occupied blocks per task id
system.dcache.tags.occ_task_id_percent::1024            1                       # Percentage of cache occupancy per task id
system.dcache.tags.tag_accesses                362755                       # Number of tag accesses
system.dcache.tags.data_accesses               362755                       # Number of data accesses
system.dcache.tags.power_state.pwrStateResidencyTicks::UNDEFINED   3709774000                       # Cumulative time (in ticks) in various power states
system.cache_large.blocked_cycles::no_mshrs            0                       # number of cycles access was blocked
system.cache_large.blocked_cycles::no_targets            0                       # number of cycles access was blocked
system.cache_large.blocked::no_mshrs                0                       # number of cycles access was blocked
system.cache_large.blocked::no_targets              0                       # number of cycles access was blocked
system.cache_large.avg_blocked_cycles::no_mshrs          nan                       # average number of cycles each access was blocked
system.cache_large.avg_blocked_cycles::no_targets          nan                       # average number of cycles each access was blocked
system.cache_large.replacements                     0                       # number of replacements
[...]
system.l2cache.demand_misses::.cpu.data          4109                       # number of demand (read+write) misses
system.l2cache.demand_misses::total             14840                       # number of demand (read+write) misses
system.l2cache.overall_misses::.cpu.inst        10731                       # number of overall misses
system.l2cache.overall_misses::.cpu.data         4109                       # number of overall misses
system.l2cache.overall_misses::total            14840                       # number of overall misses
system.l2cache.demand_miss_latency::.cpu.inst    700298000                       # number of demand (read+write) miss cycles
system.l2cache.demand_miss_latency::.cpu.data    255348000                       # number of demand (read+write) miss cycles
system.l2cache.demand_miss_latency::total    955646000                       # number of demand (read+write) miss cycles
system.l2cache.overall_miss_latency::.cpu.inst    700298000                       # number of overall miss cycles
system.l2cache.overall_miss_latency::.cpu.data    255348000                       # number of overall miss cycles
system.l2cache.overall_miss_latency::total    955646000                       # number of overall miss cycles
system.l2cache.demand_accesses::.cpu.inst        54167                       # number of demand (read+write) accesses
system.l2cache.demand_accesses::.cpu.data        20412                       # number of demand (read+write) accesses
system.l2cache.demand_accesses::total           74579                       # number of demand (read+write) accesses
system.l2cache.overall_accesses::.cpu.inst        54167                       # number of overall (read+write) accesses
system.l2cache.overall_accesses::.cpu.data        20412                       # number of overall (read+write) accesses
system.l2cache.overall_accesses::total          74579                       # number of overall (read+write) accesses
system.l2cache.demand_miss_rate::.cpu.inst     0.198110                       # miss rate for demand accesses
system.l2cache.demand_miss_rate::.cpu.data     0.201303                       # miss rate for demand accesses
system.l2cache.demand_miss_rate::total       0.198984                       # miss rate for demand accesses
system.l2cache.overall_miss_rate::.cpu.inst     0.198110                       # miss rate for overall accesses
system.l2cache.overall_miss_rate::.cpu.data     0.201303                       # miss rate for overall accesses
system.l2cache.overall_miss_rate::total      0.198984                       # miss rate for overall accesses
system.l2cache.demand_avg_miss_latency::.cpu.inst 65259.342093                       # average overall miss latency
system.l2cache.demand_avg_miss_latency::.cpu.data 62143.587248                       # average overall miss latency
system.l2cache.demand_avg_miss_latency::total 64396.630728                       # average overall miss latency
system.l2cache.overall_avg_miss_latency::.cpu.inst 65259.342093                       # average overall miss latency
system.l2cache.overall_avg_miss_latency::.cpu.data 62143.587248                       # average overall miss latency
system.l2cache.overall_avg_miss_latency::total 64396.630728                       # average overall miss latency
system.l2cache.blocked_cycles::no_mshrs             0                       # number of cycles access was blocked
system.l2cache.blocked_cycles::no_targets            0                       # number of cycles access was blocked
system.l2cache.blocked::no_mshrs                    0                       # number of cycles access was blocked
system.l2cache.blocked::no_targets                  0                       # number of cycles access was blocked
system.l2cache.avg_blocked_cycles::no_mshrs          nan                       # average number of cycles each access was blocked
system.l2cache.avg_blocked_cycles::no_targets          nan                       # average number of cycles each access was blocked
system.l2cache.writebacks::.writebacks           1606                       # number of writebacks
system.l2cache.writebacks::total                 1606                       # number of writebacks
system.l2cache.demand_mshr_misses::.cpu.inst        10731                       # number of demand (read+write) MSHR misses
system.l2cache.demand_mshr_misses::.cpu.data         4109                       # number of demand (read+write) MSHR misses
system.l2cache.demand_mshr_misses::total        14840                       # number of demand (read+write) MSHR misses
system.l2cache.overall_mshr_misses::.cpu.inst        10731                       # number of overall MSHR misses
system.l2cache.overall_mshr_misses::.cpu.data         4109                       # number of overall MSHR misses
system.l2cache.overall_mshr_misses::total        14840                       # number of overall MSHR misses
system.l2cache.demand_mshr_miss_latency::.cpu.inst    678836000                       # number of demand (read+write) MSHR miss cycles
system.l2cache.demand_mshr_miss_latency::.cpu.data    247130000                       # number of demand (read+write) MSHR miss cycles
system.l2cache.demand_mshr_miss_latency::total    925966000                       # number of demand (read+write) MSHR miss cycles
system.l2cache.overall_mshr_miss_latency::.cpu.inst    678836000                       # number of overall MSHR miss cycles
system.l2cache.overall_mshr_miss_latency::.cpu.data    247130000                       # number of overall MSHR miss cycles
system.l2cache.overall_mshr_miss_latency::total    925966000                       # number of overall MSHR miss cycles
system.l2cache.demand_mshr_miss_rate::.cpu.inst     0.198110                       # mshr miss rate for demand accesses
system.l2cache.demand_mshr_miss_rate::.cpu.data     0.201303                       # mshr miss rate for demand accesses
system.l2cache.demand_mshr_miss_rate::total     0.198984                       # mshr miss rate for demand accesses
system.l2cache.overall_mshr_miss_rate::.cpu.inst     0.198110                       # mshr miss rate for overall accesses
system.l2cache.overall_mshr_miss_rate::.cpu.data     0.201303                       # mshr miss rate for overall accesses
system.l2cache.overall_mshr_miss_rate::total     0.198984                       # mshr miss rate for overall accesses
system.l2cache.demand_avg_mshr_miss_latency::.cpu.inst 63259.342093                       # average overall mshr miss latency
system.l2cache.demand_avg_mshr_miss_latency::.cpu.data 60143.587248                       # average overall mshr miss latency
system.l2cache.demand_avg_mshr_miss_latency::total 62396.630728                       # average overall mshr miss latency
system.l2cache.overall_avg_mshr_miss_latency::.cpu.inst 63259.342093                       # average overall mshr miss latency
system.l2cache.overall_avg_mshr_miss_latency::.cpu.data 60143.587248                       # average overall mshr miss latency
system.l2cache.overall_avg_mshr_miss_latency::total 62396.630728                       # average overall mshr miss latency
system.l2cache.replacements                      9005                       # number of replacements
system.l2cache.WritebackDirty_hits::.writebacks        16565                       # number of WritebackDirty hits
system.l2cache.WritebackDirty_hits::total        16565                       # number of WritebackDirty hits
system.l2cache.WritebackDirty_accesses::.writebacks        16565                       # number of WritebackDirty accesses(hits+misses)
system.l2cache.WritebackDirty_accesses::total        16565                       # number of WritebackDirty accesses(hits+misses)
system.l2cache.CleanEvict_mshr_misses::.writebacks         3672                       # number of CleanEvict MSHR misses
system.l2cache.CleanEvict_mshr_misses::total         3672                       # number of CleanEvict MSHR misses
system.l2cache.CleanEvict_mshr_miss_rate::.writebacks          inf                       # mshr miss rate for CleanEvict accesses
system.l2cache.CleanEvict_mshr_miss_rate::total          inf                       # mshr miss rate for CleanEvict accesses
system.l2cache.ReadExReq_hits::.cpu.data         3892                       # number of ReadExReq hits
system.l2cache.ReadExReq_hits::total             3892                       # number of ReadExReq hits
system.l2cache.ReadExReq_misses::.cpu.data         2997                       # number of ReadExReq misses
system.l2cache.ReadExReq_misses::total           2997                       # number of ReadExReq misses
system.l2cache.ReadExReq_miss_latency::.cpu.data    184760000                       # number of ReadExReq miss cycles
system.l2cache.ReadExReq_miss_latency::total    184760000                       # number of ReadExReq miss cycles
system.l2cache.ReadExReq_accesses::.cpu.data         6889                       # number of ReadExReq accesses(hits+misses)
system.l2cache.ReadExReq_accesses::total         6889                       # number of ReadExReq accesses(hits+misses)
system.l2cache.ReadExReq_miss_rate::.cpu.data     0.435041                       # miss rate for ReadExReq accesses
system.l2cache.ReadExReq_miss_rate::total     0.435041                       # miss rate for ReadExReq accesses
system.l2cache.ReadExReq_avg_miss_latency::.cpu.data 61648.314982                       # average ReadExReq miss latency
system.l2cache.ReadExReq_avg_miss_latency::total 61648.314982                       # average ReadExReq miss latency
system.l2cache.ReadExReq_mshr_misses::.cpu.data         2997                       # number of ReadExReq MSHR misses
system.l2cache.ReadExReq_mshr_misses::total         2997                       # number of ReadExReq MSHR misses
system.l2cache.ReadExReq_mshr_miss_latency::.cpu.data    178766000                       # number of ReadExReq MSHR miss cycles
system.l2cache.ReadExReq_mshr_miss_latency::total    178766000                       # number of ReadExReq MSHR miss cycles
system.l2cache.ReadExReq_mshr_miss_rate::.cpu.data     0.435041                       # mshr miss rate for ReadExReq accesses
system.l2cache.ReadExReq_mshr_miss_rate::total     0.435041                       # mshr miss rate for ReadExReq accesses
system.l2cache.ReadExReq_avg_mshr_miss_latency::.cpu.data 59648.314982                       # average ReadExReq mshr miss latency
system.l2cache.ReadExReq_avg_mshr_miss_latency::total 59648.314982                       # average ReadExReq mshr miss latency
system.l2cache.ReadSharedReq_hits::.cpu.inst        43436                       # number of ReadSharedReq hits
system.l2cache.ReadSharedReq_hits::.cpu.data        12411                       # number of ReadSharedReq hits
system.l2cache.ReadSharedReq_hits::total        55847                       # number of ReadSharedReq hits
system.l2cache.ReadSharedReq_misses::.cpu.inst        10731                       # number of ReadSharedReq misses
system.l2cache.ReadSharedReq_misses::.cpu.data         1112                       # number of ReadSharedReq misses
system.l2cache.ReadSharedReq_misses::total        11843                       # number of ReadSharedReq misses
system.l2cache.ReadSharedReq_miss_latency::.cpu.inst    700298000                       # number of ReadSharedReq miss cycles
system.l2cache.ReadSharedReq_miss_latency::.cpu.data     70588000                       # number of ReadSharedReq miss cycles
system.l2cache.ReadSharedReq_miss_latency::total    770886000                       # number of ReadSharedReq miss cycles
system.l2cache.ReadSharedReq_accesses::.cpu.inst        54167                       # number of ReadSharedReq accesses(hits+misses)
system.l2cache.ReadSharedReq_accesses::.cpu.data        13523                       # number of ReadSharedReq accesses(hits+misses)
system.l2cache.ReadSharedReq_accesses::total        67690                       # number of ReadSharedReq accesses(hits+misses)
system.l2cache.ReadSharedReq_miss_rate::.cpu.inst     0.198110                       # miss rate for ReadSharedReq accesses
system.l2cache.ReadSharedReq_miss_rate::.cpu.data     0.082230                       # miss rate for ReadSharedReq accesses
system.l2cache.ReadSharedReq_miss_rate::total     0.174959                       # miss rate for ReadSharedReq accesses
system.l2cache.ReadSharedReq_avg_miss_latency::.cpu.inst 65259.342093                       # average ReadSharedReq miss latency
system.l2cache.ReadSharedReq_avg_miss_latency::.cpu.data 63478.417266                       # average ReadSharedReq miss latency
system.l2cache.ReadSharedReq_avg_miss_latency::total 65092.121929                       # average ReadSharedReq miss latency
system.l2cache.ReadSharedReq_mshr_misses::.cpu.inst        10731                       # number of ReadSharedReq MSHR misses
system.l2cache.ReadSharedReq_mshr_misses::.cpu.data         1112                       # number of ReadSharedReq MSHR misses
system.l2cache.ReadSharedReq_mshr_misses::total        11843                       # number of ReadSharedReq MSHR misses
system.l2cache.ReadSharedReq_mshr_miss_latency::.cpu.inst    678836000                       # number of ReadSharedReq MSHR miss cycles
system.l2cache.ReadSharedReq_mshr_miss_latency::.cpu.data     68364000                       # number of ReadSharedReq MSHR miss cycles
system.l2cache.ReadSharedReq_mshr_miss_latency::total    747200000                       # number of ReadSharedReq MSHR miss cycles
system.l2cache.ReadSharedReq_mshr_miss_rate::.cpu.inst     0.198110                       # mshr miss rate for ReadSharedReq accesses
system.l2cache.ReadSharedReq_mshr_miss_rate::.cpu.data     0.082230                       # mshr miss rate for ReadSharedReq accesses
system.l2cache.ReadSharedReq_mshr_miss_rate::total     0.174959                       # mshr miss rate for ReadSharedReq accesses
system.l2cache.ReadSharedReq_avg_mshr_miss_latency::.cpu.inst 63259.342093                       # average ReadSharedReq mshr miss latency
system.l2cache.ReadSharedReq_avg_mshr_miss_latency::.cpu.data 61478.417266                       # average ReadSharedReq mshr miss latency
system.l2cache.ReadSharedReq_avg_mshr_miss_latency::total 63092.121929                       # average ReadSharedReq mshr miss latency
system.l2cache.power_state.pwrStateResidencyTicks::UNDEFINED  18566870000                       # Cumulative time (in ticks) in various power states
system.l2cache.tags.tagsinuse             5069.348356                       # Cycle average of tags in use
system.l2cache.tags.total_refs                 144462                       # Total number of references to valid blocks.
system.l2cache.tags.sampled_refs                15596                       # Sample count of references to valid blocks.
system.l2cache.tags.avg_refs                 9.262760                       # Average number of references to valid blocks.
system.l2cache.tags.warmup_cycle                77000                       # Cycle when the warmup percentage was hit.
system.l2cache.tags.occ_blocks::.writebacks   141.893654                       # Average occupied blocks per requestor
system.l2cache.tags.occ_blocks::.cpu.inst  2946.141887                       # Average occupied blocks per requestor
system.l2cache.tags.occ_blocks::.cpu.data  1981.312815                       # Average occupied blocks per requestor
system.l2cache.tags.occ_percent::.writebacks     0.008661                       # Average percentage of cache occupancy
system.l2cache.tags.occ_percent::.cpu.inst     0.179818                       # Average percentage of cache occupancy
system.l2cache.tags.occ_percent::.cpu.data     0.120930                       # Average percentage of cache occupancy
system.l2cache.tags.occ_percent::total       0.309408                       # Average percentage of cache occupancy
system.l2cache.tags.occ_task_id_blocks::1024         6591                       # Occupied blocks per task id
system.l2cache.tags.age_task_id_blocks_1024::1          135                       # Occupied blocks per task id
system.l2cache.tags.age_task_id_blocks_1024::2          235                       # Occupied blocks per task id
system.l2cache.tags.age_task_id_blocks_1024::3         2102                       # Occupied blocks per task id
system.l2cache.tags.age_task_id_blocks_1024::4         4119                       # Occupied blocks per task id
system.l2cache.tags.occ_task_id_percent::1024     0.402283                       # Percentage of cache occupancy per task id
system.l2cache.tags.tag_accesses               163730                       # Number of tag accesses
system.l2cache.tags.data_accesses              163730                       # Number of data accesses
system.l2cache.tags.power_state.pwrStateResidencyTicks::UNDEFINED  18566870000                       # Cumulative time (in ticks) in various power states
system.l2bar.trans_dist::ReadResp               67690                       # Transaction distribution
system.l2bar.trans_dist::WritebackDirty         16565                       # Transaction distribution
system.l2bar.trans_dist::CleanEvict             56990                       # Transaction distribution
system.l2bar.trans_dist::ReadExReq               6889                       # Transaction distribution
system.l2bar.trans_dist::ReadExResp              6889                       # Transaction distribution
system.l2bar.trans_dist::ReadSharedReq          67690                       # Transaction distribution
system.l2bar.pkt_count_system.dcache.mem_side::system.l2cache.cpu_side        60724                       # Packet count per connected master and slave (bytes)
system.l2bar.pkt_count_system.icache.mem_side::system.l2cache.cpu_side       161989                       # Packet count per connected master and slave (bytes)
system.l2bar.pkt_count::total                  222713                       # Packet count per connected master and slave (bytes)
system.l2bar.pkt_size_system.dcache.mem_side::system.l2cache.cpu_side      2366528                       # Cumulative packet size per connected master and slave (bytes)
system.l2bar.pkt_size_system.icache.mem_side::system.l2cache.cpu_side      3466688                       # Cumulative packet size per connected master and slave (bytes)
system.l2bar.pkt_size::total                  5833216                       # Cumulative packet size per connected master and slave (bytes)
system.l2bar.respLayer1.occupancy           270835000                       # Layer occupancy (ticks)
system.l2bar.respLayer1.utilization               1.5                       # Layer utilization (%)
system.l2bar.reqLayer0.occupancy            214394000                       # Layer occupancy (ticks)
system.l2bar.reqLayer0.utilization                1.2                       # Layer utilization (%)
system.l2bar.respLayer0.occupancy           102060000                       # Layer occupancy (ticks)
system.l2bar.respLayer0.utilization               0.5                       # Layer utilization (%)
system.l2bar.power_state.pwrStateResidencyTicks::UNDEFINED  18566870000                       # Cumulative time (in ticks) in various power states
system.cpu.dtb.walker.power_state.pwrStateResidencyTicks::UNDEFINED  18566870000                       # Cumulative time (in ticks) in various power states
system.cpu.interrupts.clk_domain.clock          16000                       # Clock period in ticks
system.cpu.itb.walker.power_state.pwrStateResidencyTicks::UNDEFINED  18566870000                       # Cumulative time (in ticks) in various power states
system.cpu.power_state.numTransitions               1                       # Number of power state transitions
system.cpu.power_state.pwrStateResidencyTicks::ON  18566870000                       # Cumulative time (in ticks) in various power states

---------- End Simulation Statistics   ----------
