
---------- Begin Simulation Statistics ----------
final_tick                               412435442000                       # Number of ticks from beginning of simulation (restored from checkpoints and never reset)
host_inst_rate                                 224719                       # Simulator instruction rate (inst/s)
host_mem_usage                                 739628                       # Number of bytes of host memory used
host_op_rate                                   420370                       # Simulator op (including micro ops) rate (op/s)
host_seconds                                    22.25                       # Real time elapsed on the host
host_tick_rate                            18536267245                       # Simulator tick rate (ticks/s)
sim_freq                                 1000000000000                       # Frequency of simulated ticks
sim_insts                                     5000001                       # Number of instructions simulated
sim_ops                                       9353296                       # Number of ops (including micro ops) simulated
sim_seconds                                  0.412435                       # Number of seconds simulated
sim_ticks                                412435442000                       # Number of ticks simulated
system.cachebus.snoop_filter.hit_multi_requests            0                       # Number of requests hitting in the snoop filter with multiple (>1) holders of the requested data.
system.cachebus.snoop_filter.hit_multi_snoops            0                       # Number of snoops hitting in the snoop filter with multiple (>1) holders of the requested data.
system.cachebus.snoop_filter.hit_single_requests            0                       # Number of requests hitting in the snoop filter with a single holder of the requested data.
system.cachebus.snoop_filter.hit_single_snoops            0                       # Number of snoops hitting in the snoop filter with a single holder of the requested data.
system.cachebus.snoop_filter.tot_requests            0                       # Total number of requests made to the snoop filter.
system.cachebus.snoop_filter.tot_snoops             0                       # Total number of snoops made to the snoop filter.
system.cpu.Branches                           1126759                       # Number of branches fetched
system.cpu.committedInsts                     5000001                       # Number of instructions committed
system.cpu.committedOps                       9353296                       # Number of ops (including micro ops) committed
system.cpu.dtb.rdAccesses                     1204265                       # TLB accesses on read requests
system.cpu.dtb.rdMisses                           116                       # TLB misses on read requests
system.cpu.dtb.wrAccesses                      670718                       # TLB accesses on write requests
system.cpu.dtb.wrMisses                           116                       # TLB misses on write requests
system.cpu.idle_fraction                            0                       # Percentage of idle cycles
system.cpu.itb.rdAccesses                           0                       # TLB accesses on read requests
system.cpu.itb.rdMisses                             0                       # TLB misses on read requests
system.cpu.itb.wrAccesses                     6481317                       # TLB accesses on write requests
system.cpu.itb.wrMisses                           161                       # TLB misses on write requests
system.cpu.not_idle_fraction                        1                       # Percentage of non-idle cycles
system.cpu.numCycles                        412435442                       # number of cpu cycles simulated
system.cpu.numWorkItemsCompleted                    0                       # number of work items this cpu completed
system.cpu.numWorkItemsStarted                      0                       # number of work items this cpu started
system.cpu.num_busy_cycles                  412435442                       # Number of busy cycles
system.cpu.num_cc_register_reads              5672553                       # number of times the CC registers were read
system.cpu.num_cc_register_writes             3094082                       # number of times the CC registers were written
system.cpu.num_conditional_control_insts       839193                       # number of instructions that are conditional controls
system.cpu.num_fp_alu_accesses                  84807                       # Number of float alu accesses
system.cpu.num_fp_insts                         84807                       # number of float instructions
system.cpu.num_fp_register_reads               135761                       # number of times the floating registers were read
system.cpu.num_fp_register_writes               67483                       # number of times the floating registers were written
system.cpu.num_func_calls                      180970                       # number of times a function call or return occured
system.cpu.num_idle_cycles                          0                       # Number of idle cycles
system.cpu.num_int_alu_accesses               9268018                       # Number of integer alu accesses
system.cpu.num_int_insts                      9268018                       # number of integer instructions
system.cpu.num_int_register_reads            18288173                       # number of times the integer registers were read
system.cpu.num_int_register_writes            7468938                       # number of times the integer registers were written
system.cpu.num_load_insts                     1203255                       # Number of load instructions
system.cpu.num_mem_refs                       1873664                       # number of memory refs
system.cpu.num_store_insts                     670409                       # Number of store instructions
system.cpu.num_vec_alu_accesses                     0                       # Number of vector alu accesses
system.cpu.num_vec_insts                            0                       # number of vector instructions
system.cpu.num_vec_register_reads                   0                       # number of times the vector registers were read
system.cpu.num_vec_register_writes                  0                       # number of times the vector registers were written
system.cpu.op_class::No_OpClass                 28279      0.30%      0.30% # Class of executed instruction
system.cpu.op_class::IntAlu                   7384501     78.95%     79.25% # Class of executed instruction
system.cpu.op_class::IntMult                      733      0.01%     79.26% # Class of executed instruction
system.cpu.op_class::IntDiv                       609      0.01%     79.27% # Class of executed instruction
system.cpu.op_class::FloatAdd                     335      0.00%     79.27% # Class of executed instruction
system.cpu.op_class::FloatCmp                       0      0.00%     79.27% # Class of executed instruction
system.cpu.op_class::FloatCvt                       0      0.00%     79.27% # Class of executed instruction
system.cpu.op_class::FloatMult                      0      0.00%     79.27% # Class of executed instruction
system.cpu.op_class::FloatMultAcc                   0      0.00%     79.27% # Class of executed instruction
system.cpu.op_class::FloatDiv                       0      0.00%     79.27% # Class of executed instruction
system.cpu.op_class::FloatMisc                      0      0.00%     79.27% # Class of executed instruction
system.cpu.op_class::FloatSqrt                      0      0.00%     79.27% # Class of executed instruction
system.cpu.op_class::SimdAdd                       16      0.00%     79.27% # Class of executed instruction
system.cpu.op_class::SimdAddAcc                     0      0.00%     79.27% # Class of executed instruction
system.cpu.op_class::SimdAlu                    30580      0.33%     79.60% # Class of executed instruction
system.cpu.op_class::SimdCmp                      480      0.01%     79.60% # Class of executed instruction
system.cpu.op_class::SimdCvt                    16630      0.18%     79.78% # Class of executed instruction
system.cpu.op_class::SimdMisc                   17348      0.19%     79.97% # Class of executed instruction
system.cpu.op_class::SimdMult                       0      0.00%     79.97% # Class of executed instruction
system.cpu.op_class::SimdMultAcc                    0      0.00%     79.97% # Class of executed instruction
system.cpu.op_class::SimdShift                      0      0.00%     79.97% # Class of executed instruction
system.cpu.op_class::SimdShiftAcc                   0      0.00%     79.97% # Class of executed instruction
system.cpu.op_class::SimdDiv                        0      0.00%     79.97% # Class of executed instruction
system.cpu.op_class::SimdSqrt                       0      0.00%     79.97% # Class of executed instruction
system.cpu.op_class::SimdFloatAdd                   0      0.00%     79.97% # Class of executed instruction
system.cpu.op_class::SimdFloatAlu                   0      0.00%     79.97% # Class of executed instruction
system.cpu.op_class::SimdFloatCmp                   0      0.00%     79.97% # Class of executed instruction
system.cpu.op_class::SimdFloatCvt                 175      0.00%     79.97% # Class of executed instruction
system.cpu.op_class::SimdFloatDiv                   0      0.00%     79.97% # Class of executed instruction
system.cpu.op_class::SimdFloatMisc                  0      0.00%     79.97% # Class of executed instruction
system.cpu.op_class::SimdFloatMult                  0      0.00%     79.97% # Class of executed instruction
system.cpu.op_class::SimdFloatMultAcc               0      0.00%     79.97% # Class of executed instruction
system.cpu.op_class::SimdFloatSqrt                  0      0.00%     79.97% # Class of executed instruction
system.cpu.op_class::SimdReduceAdd                  0      0.00%     79.97% # Class of executed instruction
system.cpu.op_class::SimdReduceAlu                  0      0.00%     79.97% # Class of executed instruction
system.cpu.op_class::SimdReduceCmp                  0      0.00%     79.97% # Class of executed instruction
system.cpu.op_class::SimdFloatReduceAdd             0      0.00%     79.97% # Class of executed instruction
system.cpu.op_class::SimdFloatReduceCmp             0      0.00%     79.97% # Class of executed instruction
system.cpu.op_class::SimdAes                        0      0.00%     79.97% # Class of executed instruction
system.cpu.op_class::SimdAesMix                     0      0.00%     79.97% # Class of executed instruction
system.cpu.op_class::SimdSha1Hash                   0      0.00%     79.97% # Class of executed instruction
system.cpu.op_class::SimdSha1Hash2                  0      0.00%     79.97% # Class of executed instruction
system.cpu.op_class::SimdSha256Hash                 0      0.00%     79.97% # Class of executed instruction
system.cpu.op_class::SimdSha256Hash2                0      0.00%     79.97% # Class of executed instruction
system.cpu.op_class::SimdShaSigma2                  0      0.00%     79.97% # Class of executed instruction
system.cpu.op_class::SimdShaSigma3                  0      0.00%     79.97% # Class of executed instruction
system.cpu.op_class::SimdPredAlu                    0      0.00%     79.97% # Class of executed instruction
system.cpu.op_class::MemRead                  1186802     12.69%     92.66% # Class of executed instruction
system.cpu.op_class::MemWrite                  668830      7.15%     99.81% # Class of executed instruction
system.cpu.op_class::FloatMemRead               16453      0.18%     99.98% # Class of executed instruction
system.cpu.op_class::FloatMemWrite               1579      0.02%    100.00% # Class of executed instruction
system.cpu.op_class::IprAccess                      0      0.00%    100.00% # Class of executed instruction
system.cpu.op_class::InstPrefetch                   0      0.00%    100.00% # Class of executed instruction
system.cpu.op_class::total                    9353350                       # Class of executed instruction
system.cpu.workload.numSyscalls                    13                       # Number of system calls
system.membus.snoop_filter.hit_multi_requests            0                       # Number of requests hitting in the snoop filter with multiple (>1) holders of the requested data.
system.membus.snoop_filter.hit_multi_snoops            0                       # Number of snoops hitting in the snoop filter with multiple (>1) holders of the requested data.
system.membus.snoop_filter.hit_single_requests            0                       # Number of requests hitting in the snoop filter with a single holder of the requested data.
system.membus.snoop_filter.hit_single_snoops            0                       # Number of snoops hitting in the snoop filter with a single holder of the requested data.
system.membus.snoop_filter.tot_requests             0                       # Total number of requests made to the snoop filter.
system.membus.snoop_filter.tot_snoops               0                       # Total number of snoops made to the snoop filter.
system.membus.trans_dist::ReadReq             7685507                       # Transaction distribution
system.membus.trans_dist::ReadResp            7685506                       # Transaction distribution
system.membus.trans_dist::WriteReq             670664                       # Transaction distribution
system.membus.trans_dist::WriteResp            670664                       # Transaction distribution
system.membus.trans_dist::SoftPFReq                75                       # Transaction distribution
system.membus.trans_dist::SoftPFResp               75                       # Transaction distribution
system.membus.pkt_count_system.cpu.icache_port::system.mem_ctrl.port     12962633                       # Packet count per connected master and slave (bytes)
system.membus.pkt_count_system.cpu.icache_port::total     12962633                       # Packet count per connected master and slave (bytes)
system.membus.pkt_count_system.memobj.mem_side::system.mem_ctrl.port      3749858                       # Packet count per connected master and slave (bytes)
system.membus.pkt_count_system.memobj.mem_side::total      3749858                       # Packet count per connected master and slave (bytes)
system.membus.pkt_count::total               16712491                       # Packet count per connected master and slave (bytes)
system.membus.pkt_size_system.cpu.icache_port::system.mem_ctrl.port     51850528                       # Cumulative packet size per connected master and slave (bytes)
system.membus.pkt_size_system.cpu.icache_port::total     51850528                       # Cumulative packet size per connected master and slave (bytes)
system.membus.pkt_size_system.memobj.mem_side::system.mem_ctrl.port     11377178                       # Cumulative packet size per connected master and slave (bytes)
system.membus.pkt_size_system.memobj.mem_side::total     11377178                       # Cumulative packet size per connected master and slave (bytes)
system.membus.pkt_size::total                63227706                       # Cumulative packet size per connected master and slave (bytes)
system.membus.snoops                                0                       # Total snoops (count)
system.membus.snoopTraffic                          0                       # Total snoop traffic (bytes)
system.membus.snoop_fanout::samples           8356246                       # Request fanout histogram
system.membus.snoop_fanout::mean                    0                       # Request fanout histogram
system.membus.snoop_fanout::stdev                   0                       # Request fanout histogram
system.membus.snoop_fanout::underflows              0      0.00%      0.00% # Request fanout histogram
system.membus.snoop_fanout::0                 8356246    100.00%    100.00% # Request fanout histogram
system.membus.snoop_fanout::1                       0      0.00%    100.00% # Request fanout histogram
system.membus.snoop_fanout::overflows               0      0.00%    100.00% # Request fanout histogram
system.membus.snoop_fanout::min_value               0                       # Request fanout histogram
system.membus.snoop_fanout::max_value               0                       # Request fanout histogram
system.membus.snoop_fanout::total             8356246                       # Request fanout histogram
system.membus.reqLayer2.occupancy          9026910000                       # Layer occupancy (ticks)
system.membus.reqLayer2.utilization               2.2                       # Layer utilization (%)
system.membus.respLayer1.occupancy         3437801000                       # Layer occupancy (ticks)
system.membus.respLayer1.utilization              0.8                       # Layer utilization (%)
system.membus.respLayer0.occupancy        14709051250                       # Layer occupancy (ticks)
system.membus.respLayer0.utilization              3.6                       # Layer utilization (%)
system.membus.power_state.pwrStateResidencyTicks::UNDEFINED 412435442000                       # Cumulative time (in ticks) in various power states
system.mem_ctrl.bytes_read::.cpu.inst        51850528                       # Number of bytes read from this memory
system.mem_ctrl.bytes_read::.cpu.data         6846911                       # Number of bytes read from this memory
system.mem_ctrl.bytes_read::total            58697439                       # Number of bytes read from this memory
system.mem_ctrl.bytes_inst_read::.cpu.inst     51850528                       # Number of instructions bytes read from this memory
system.mem_ctrl.bytes_inst_read::total       51850528                       # Number of instructions bytes read from this memory
system.mem_ctrl.bytes_written::.cpu.data      4530267                       # Number of bytes written to this memory
system.mem_ctrl.bytes_written::total          4530267                       # Number of bytes written to this memory
system.mem_ctrl.num_reads::.cpu.inst          6481316                       # Number of read requests responded to by this memory
system.mem_ctrl.num_reads::.cpu.data          1204265                       # Number of read requests responded to by this memory
system.mem_ctrl.num_reads::total              7685581                       # Number of read requests responded to by this memory
system.mem_ctrl.num_writes::.cpu.data          670664                       # Number of write requests responded to by this memory
system.mem_ctrl.num_writes::total              670664                       # Number of write requests responded to by this memory
system.mem_ctrl.bw_read::.cpu.inst          125717925                       # Total read bandwidth from this memory (bytes/s)
system.mem_ctrl.bw_read::.cpu.data           16601170                       # Total read bandwidth from this memory (bytes/s)
system.mem_ctrl.bw_read::total              142319095                       # Total read bandwidth from this memory (bytes/s)
system.mem_ctrl.bw_inst_read::.cpu.inst     125717925                       # Instruction read bandwidth from this memory (bytes/s)
system.mem_ctrl.bw_inst_read::total         125717925                       # Instruction read bandwidth from this memory (bytes/s)
system.mem_ctrl.bw_write::.cpu.data          10984185                       # Write bandwidth from this memory (bytes/s)
system.mem_ctrl.bw_write::total              10984185                       # Write bandwidth from this memory (bytes/s)
system.mem_ctrl.bw_total::.cpu.inst         125717925                       # Total bandwidth to/from this memory (bytes/s)
system.mem_ctrl.bw_total::.cpu.data          27585355                       # Total bandwidth to/from this memory (bytes/s)
system.mem_ctrl.bw_total::total             153303280                       # Total bandwidth to/from this memory (bytes/s)
system.mem_ctrl.avgPriority_.cpu.inst::samples   6481317.00                       # Average QoS priority value for accepted requests
system.mem_ctrl.avgPriority_.cpu.data::samples   1096359.00                       # Average QoS priority value for accepted requests
system.mem_ctrl.priorityMinLatency       0.000000018750                       # per QoS priority minimum request to response latency (s)
system.mem_ctrl.priorityMaxLatency       0.009115104500                       # per QoS priority maximum request to response latency (s)
system.mem_ctrl.numReadWriteTurnArounds          2020                       # Number of turnarounds from READ to WRITE
system.mem_ctrl.numWriteReadTurnArounds          2020                       # Number of turnarounds from WRITE to READ
system.mem_ctrl.numStayReadState             15864832                       # Number of times bus staying in READ state
system.mem_ctrl.numStayWriteState               30421                       # Number of times bus staying in WRITE state
system.mem_ctrl.readReqs                      7685582                       # Number of read requests accepted
system.mem_ctrl.writeReqs                      670664                       # Number of write requests accepted
system.mem_ctrl.readBursts                    7685582                       # Number of DRAM read bursts, including those serviced by the write queue
system.mem_ctrl.writeBursts                    670664                       # Number of DRAM write bursts, including those merged in the write queue
system.mem_ctrl.servicedByWrQ                  140354                       # Number of DRAM read bursts serviced by the write queue
system.mem_ctrl.mergedWrBursts                 638216                       # Number of DRAM write bursts merged with an existing one
system.mem_ctrl.neitherReadNorWriteReqs             0                       # Number of requests that are neither read nor write
system.mem_ctrl.perBankRdBursts::0             225594                       # Per bank write bursts
system.mem_ctrl.perBankRdBursts::1             561072                       # Per bank write bursts
system.mem_ctrl.perBankRdBursts::2             570894                       # Per bank write bursts
system.mem_ctrl.perBankRdBursts::3             631081                       # Per bank write bursts
system.mem_ctrl.perBankRdBursts::4             104089                       # Per bank write bursts
system.mem_ctrl.perBankRdBursts::5              37723                       # Per bank write bursts
system.mem_ctrl.perBankRdBursts::6             417628                       # Per bank write bursts
system.mem_ctrl.perBankRdBursts::7             358454                       # Per bank write bursts
system.mem_ctrl.perBankRdBursts::8            1479145                       # Per bank write bursts
system.mem_ctrl.perBankRdBursts::9             366537                       # Per bank write bursts
system.mem_ctrl.perBankRdBursts::10             66836                       # Per bank write bursts
system.mem_ctrl.perBankRdBursts::11            147777                       # Per bank write bursts
system.mem_ctrl.perBankRdBursts::12            334210                       # Per bank write bursts
system.mem_ctrl.perBankRdBursts::13           1473404                       # Per bank write bursts
system.mem_ctrl.perBankRdBursts::14            703936                       # Per bank write bursts
system.mem_ctrl.perBankRdBursts::15             66848                       # Per bank write bursts
system.mem_ctrl.perBankWrBursts::0                740                       # Per bank write bursts
system.mem_ctrl.perBankWrBursts::1               1013                       # Per bank write bursts
system.mem_ctrl.perBankWrBursts::2               4738                       # Per bank write bursts
system.mem_ctrl.perBankWrBursts::3                282                       # Per bank write bursts
system.mem_ctrl.perBankWrBursts::4               1012                       # Per bank write bursts
system.mem_ctrl.perBankWrBursts::5               1003                       # Per bank write bursts
system.mem_ctrl.perBankWrBursts::6              14437                       # Per bank write bursts
system.mem_ctrl.perBankWrBursts::7               1041                       # Per bank write bursts
system.mem_ctrl.perBankWrBursts::8               1872                       # Per bank write bursts
system.mem_ctrl.perBankWrBursts::9               1086                       # Per bank write bursts
system.mem_ctrl.perBankWrBursts::10               516                       # Per bank write bursts
system.mem_ctrl.perBankWrBursts::11              1138                       # Per bank write bursts
system.mem_ctrl.perBankWrBursts::12               829                       # Per bank write bursts
system.mem_ctrl.perBankWrBursts::13               943                       # Per bank write bursts
system.mem_ctrl.perBankWrBursts::14              1012                       # Per bank write bursts
system.mem_ctrl.perBankWrBursts::15               757                       # Per bank write bursts
system.mem_ctrl.avgRdQLen                        1.00                       # Average read queue length when enqueuing
system.mem_ctrl.avgWrQLen                       26.70                       # Average write queue length when enqueuing
system.mem_ctrl.totQLat                   25673092500                       # Total ticks spent queuing
system.mem_ctrl.totBusLat                 37726140000                       # Total ticks spent in databus transfers
system.mem_ctrl.totMemAccLat             167146117500                       # Total ticks spent from burst creation until serviced by the DRAM
system.mem_ctrl.avgQLat                       3402.56                       # Average queueing delay per DRAM burst
system.mem_ctrl.avgBusLat                     5000.00                       # Average bus latency per DRAM burst
system.mem_ctrl.avgMemAccLat                 22152.56                       # Average memory access latency per DRAM burst
system.mem_ctrl.numRdRetry                          0                       # Number of times read queue was full causing retry
system.mem_ctrl.numWrRetry                          0                       # Number of times write queue was full causing retry
system.mem_ctrl.readRowHits                   6773734                       # Number of row buffer hits during reads
system.mem_ctrl.writeRowHits                    29867                       # Number of row buffer hits during writes
system.mem_ctrl.readRowHitRate                  89.78                       # Row buffer hit rate for reads
system.mem_ctrl.writeRowHitRate                 92.05                       # Row buffer hit rate for writes
system.mem_ctrl.readPktSize::0                 246309                       # Read request sizes (log2)
system.mem_ctrl.readPktSize::1                   1790                       # Read request sizes (log2)
system.mem_ctrl.readPktSize::2                 262653                       # Read request sizes (log2)
system.mem_ctrl.readPktSize::3                7174830                       # Read request sizes (log2)
system.mem_ctrl.readPktSize::4                      0                       # Read request sizes (log2)
system.mem_ctrl.readPktSize::5                      0                       # Read request sizes (log2)
system.mem_ctrl.readPktSize::6                      0                       # Read request sizes (log2)
system.mem_ctrl.writePktSize::0                 61521                       # Write request sizes (log2)
system.mem_ctrl.writePktSize::1                  1559                       # Write request sizes (log2)
system.mem_ctrl.writePktSize::2                 98514                       # Write request sizes (log2)
system.mem_ctrl.writePktSize::3                509070                       # Write request sizes (log2)
system.mem_ctrl.writePktSize::4                     0                       # Write request sizes (log2)
system.mem_ctrl.writePktSize::5                     0                       # Write request sizes (log2)
system.mem_ctrl.writePktSize::6                     0                       # Write request sizes (log2)
system.mem_ctrl.rdQLenPdf::0                  7544219                       # What read queue length does an incoming req see
system.mem_ctrl.rdQLenPdf::1                     1009                       # What read queue length does an incoming req see
system.mem_ctrl.rdQLenPdf::2                        0                       # What read queue length does an incoming req see
system.mem_ctrl.rdQLenPdf::3                        0                       # What read queue length does an incoming req see
system.mem_ctrl.rdQLenPdf::4                        0                       # What read queue length does an incoming req see
system.mem_ctrl.rdQLenPdf::5                        0                       # What read queue length does an incoming req see
system.mem_ctrl.rdQLenPdf::6                        0                       # What read queue length does an incoming req see
system.mem_ctrl.rdQLenPdf::7                        0                       # What read queue length does an incoming req see
system.mem_ctrl.rdQLenPdf::8                        0                       # What read queue length does an incoming req see
system.mem_ctrl.rdQLenPdf::9                        0                       # What read queue length does an incoming req see
system.mem_ctrl.rdQLenPdf::10                       0                       # What read queue length does an incoming req see
system.mem_ctrl.rdQLenPdf::11                       0                       # What read queue length does an incoming req see
system.mem_ctrl.rdQLenPdf::12                       0                       # What read queue length does an incoming req see
system.mem_ctrl.rdQLenPdf::13                       0                       # What read queue length does an incoming req see
system.mem_ctrl.rdQLenPdf::14                       0                       # What read queue length does an incoming req see
system.mem_ctrl.rdQLenPdf::15                       0                       # What read queue length does an incoming req see
system.mem_ctrl.rdQLenPdf::16                       0                       # What read queue length does an incoming req see
system.mem_ctrl.rdQLenPdf::17                       0                       # What read queue length does an incoming req see
system.mem_ctrl.rdQLenPdf::18                       0                       # What read queue length does an incoming req see
system.mem_ctrl.rdQLenPdf::19                       0                       # What read queue length does an incoming req see
system.mem_ctrl.rdQLenPdf::20                       0                       # What read queue length does an incoming req see
system.mem_ctrl.rdQLenPdf::21                       0                       # What read queue length does an incoming req see
system.mem_ctrl.rdQLenPdf::22                       0                       # What read queue length does an incoming req see
system.mem_ctrl.rdQLenPdf::23                       0                       # What read queue length does an incoming req see
system.mem_ctrl.rdQLenPdf::24                       0                       # What read queue length does an incoming req see
system.mem_ctrl.rdQLenPdf::25                       0                       # What read queue length does an incoming req see
system.mem_ctrl.rdQLenPdf::26                       0                       # What read queue length does an incoming req see
system.mem_ctrl.rdQLenPdf::27                       0                       # What read queue length does an incoming req see
system.mem_ctrl.rdQLenPdf::28                       0                       # What read queue length does an incoming req see
system.mem_ctrl.rdQLenPdf::29                       0                       # What read queue length does an incoming req see
system.mem_ctrl.rdQLenPdf::30                       0                       # What read queue length does an incoming req see
system.mem_ctrl.rdQLenPdf::31                       0                       # What read queue length does an incoming req see
system.mem_ctrl.wrQLenPdf::0                        1                       # What write queue length does an incoming req see
system.mem_ctrl.wrQLenPdf::1                        1                       # What write queue length does an incoming req see
system.mem_ctrl.wrQLenPdf::2                        1                       # What write queue length does an incoming req see
system.mem_ctrl.wrQLenPdf::3                        1                       # What write queue length does an incoming req see
system.mem_ctrl.wrQLenPdf::4                        1                       # What write queue length does an incoming req see
system.mem_ctrl.wrQLenPdf::5                        1                       # What write queue length does an incoming req see
system.mem_ctrl.wrQLenPdf::6                        1                       # What write queue length does an incoming req see
system.mem_ctrl.wrQLenPdf::7                        1                       # What write queue length does an incoming req see
system.mem_ctrl.wrQLenPdf::8                        1                       # What write queue length does an incoming req see
system.mem_ctrl.wrQLenPdf::9                        1                       # What write queue length does an incoming req see
system.mem_ctrl.wrQLenPdf::10                       1                       # What write queue length does an incoming req see
system.mem_ctrl.wrQLenPdf::11                       1                       # What write queue length does an incoming req see
system.mem_ctrl.wrQLenPdf::12                       1                       # What write queue length does an incoming req see
system.mem_ctrl.wrQLenPdf::13                       1                       # What write queue length does an incoming req see
system.mem_ctrl.wrQLenPdf::14                       1                       # What write queue length does an incoming req see
system.mem_ctrl.wrQLenPdf::15                      46                       # What write queue length does an incoming req see
system.mem_ctrl.wrQLenPdf::16                      46                       # What write queue length does an incoming req see
system.mem_ctrl.wrQLenPdf::17                    2024                       # What write queue length does an incoming req see
system.mem_ctrl.wrQLenPdf::18                    2021                       # What write queue length does an incoming req see
system.mem_ctrl.wrQLenPdf::19                    2023                       # What write queue length does an incoming req see
system.mem_ctrl.wrQLenPdf::20                    2022                       # What write queue length does an incoming req see
system.mem_ctrl.wrQLenPdf::21                    2023                       # What write queue length does an incoming req see
system.mem_ctrl.wrQLenPdf::22                    2021                       # What write queue length does an incoming req see
system.mem_ctrl.wrQLenPdf::23                    2022                       # What write queue length does an incoming req see
system.mem_ctrl.wrQLenPdf::24                    2021                       # What write queue length does an incoming req see
system.mem_ctrl.wrQLenPdf::25                    2021                       # What write queue length does an incoming req see
system.mem_ctrl.wrQLenPdf::26                    2021                       # What write queue length does an incoming req see
system.mem_ctrl.wrQLenPdf::27                    2021                       # What write queue length does an incoming req see
system.mem_ctrl.wrQLenPdf::28                    2021                       # What write queue length does an incoming req see
system.mem_ctrl.wrQLenPdf::29                    2020                       # What write queue length does an incoming req see
system.mem_ctrl.wrQLenPdf::30                    2020                       # What write queue length does an incoming req see
system.mem_ctrl.wrQLenPdf::31                    2020                       # What write queue length does an incoming req see
system.mem_ctrl.wrQLenPdf::32                    2020                       # What write queue length does an incoming req see
system.mem_ctrl.wrQLenPdf::33                       0                       # What write queue length does an incoming req see
system.mem_ctrl.wrQLenPdf::34                       0                       # What write queue length does an incoming req see
system.mem_ctrl.wrQLenPdf::35                       0                       # What write queue length does an incoming req see
system.mem_ctrl.wrQLenPdf::36                       0                       # What write queue length does an incoming req see
system.mem_ctrl.wrQLenPdf::37                       0                       # What write queue length does an incoming req see
system.mem_ctrl.wrQLenPdf::38                       0                       # What write queue length does an incoming req see
system.mem_ctrl.wrQLenPdf::39                       0                       # What write queue length does an incoming req see
system.mem_ctrl.wrQLenPdf::40                       0                       # What write queue length does an incoming req see
system.mem_ctrl.wrQLenPdf::41                       0                       # What write queue length does an incoming req see
system.mem_ctrl.wrQLenPdf::42                       0                       # What write queue length does an incoming req see
system.mem_ctrl.wrQLenPdf::43                       0                       # What write queue length does an incoming req see
system.mem_ctrl.wrQLenPdf::44                       0                       # What write queue length does an incoming req see
system.mem_ctrl.wrQLenPdf::45                       0                       # What write queue length does an incoming req see
system.mem_ctrl.wrQLenPdf::46                       0                       # What write queue length does an incoming req see
system.mem_ctrl.wrQLenPdf::47                       0                       # What write queue length does an incoming req see
system.mem_ctrl.wrQLenPdf::48                       0                       # What write queue length does an incoming req see
system.mem_ctrl.wrQLenPdf::49                       0                       # What write queue length does an incoming req see
system.mem_ctrl.wrQLenPdf::50                       0                       # What write queue length does an incoming req see
system.mem_ctrl.wrQLenPdf::51                       0                       # What write queue length does an incoming req see
system.mem_ctrl.wrQLenPdf::52                       0                       # What write queue length does an incoming req see
system.mem_ctrl.wrQLenPdf::53                       0                       # What write queue length does an incoming req see
system.mem_ctrl.wrQLenPdf::54                       0                       # What write queue length does an incoming req see
system.mem_ctrl.wrQLenPdf::55                       0                       # What write queue length does an incoming req see
system.mem_ctrl.wrQLenPdf::56                       0                       # What write queue length does an incoming req see
system.mem_ctrl.wrQLenPdf::57                       0                       # What write queue length does an incoming req see
system.mem_ctrl.wrQLenPdf::58                       0                       # What write queue length does an incoming req see
system.mem_ctrl.wrQLenPdf::59                       0                       # What write queue length does an incoming req see
system.mem_ctrl.wrQLenPdf::60                       0                       # What write queue length does an incoming req see
system.mem_ctrl.wrQLenPdf::61                       0                       # What write queue length does an incoming req see
system.mem_ctrl.wrQLenPdf::62                       0                       # What write queue length does an incoming req see
system.mem_ctrl.wrQLenPdf::63                       0                       # What write queue length does an incoming req see
system.mem_ctrl.bytesPerActivate::samples       774040                       # Bytes accessed per row activation
system.mem_ctrl.bytesPerActivate::mean     626.540024                       # Bytes accessed per row activation
system.mem_ctrl.bytesPerActivate::gmean    426.043895                       # Bytes accessed per row activation
system.mem_ctrl.bytesPerActivate::stdev    402.947195                       # Bytes accessed per row activation
system.mem_ctrl.bytesPerActivate::0-127        107473     13.88%     13.88% # Bytes accessed per row activation
system.mem_ctrl.bytesPerActivate::128-255       113418     14.65%     28.54% # Bytes accessed per row activation
system.mem_ctrl.bytesPerActivate::256-383        58520      7.56%     36.10% # Bytes accessed per row activation
system.mem_ctrl.bytesPerActivate::384-511        38835      5.02%     41.11% # Bytes accessed per row activation
system.mem_ctrl.bytesPerActivate::512-639        42154      5.45%     46.56% # Bytes accessed per row activation
system.mem_ctrl.bytesPerActivate::640-767        23037      2.98%     49.54% # Bytes accessed per row activation
system.mem_ctrl.bytesPerActivate::768-895        28382      3.67%     53.20% # Bytes accessed per row activation
system.mem_ctrl.bytesPerActivate::896-1023        27453      3.55%     56.75% # Bytes accessed per row activation
system.mem_ctrl.bytesPerActivate::1024-1151       334768     43.25%    100.00% # Bytes accessed per row activation
system.mem_ctrl.bytesPerActivate::total        774040                       # Bytes accessed per row activation
system.mem_ctrl.rdPerTurnAround::samples         2020                       # Reads before turning the bus around for writes
system.mem_ctrl.rdPerTurnAround::mean     3725.862376                       # Reads before turning the bus around for writes
system.mem_ctrl.rdPerTurnAround::gmean    2456.391575                       # Reads before turning the bus around for writes
system.mem_ctrl.rdPerTurnAround::stdev    3950.610951                       # Reads before turning the bus around for writes
system.mem_ctrl.rdPerTurnAround::0-1023           388     19.21%     19.21% # Reads before turning the bus around for writes
system.mem_ctrl.rdPerTurnAround::1024-2047          504     24.95%     44.16% # Reads before turning the bus around for writes
system.mem_ctrl.rdPerTurnAround::2048-3071          348     17.23%     61.39% # Reads before turning the bus around for writes
system.mem_ctrl.rdPerTurnAround::3072-4095          246     12.18%     73.56% # Reads before turning the bus around for writes
system.mem_ctrl.rdPerTurnAround::4096-5119           99      4.90%     78.47% # Reads before turning the bus around for writes
system.mem_ctrl.rdPerTurnAround::5120-6143           76      3.76%     82.23% # Reads before turning the bus around for writes
system.mem_ctrl.rdPerTurnAround::6144-7167           63      3.12%     85.35% # Reads before turning the bus around for writes
system.mem_ctrl.rdPerTurnAround::7168-8191           65      3.22%     88.56% # Reads before turning the bus around for writes
system.mem_ctrl.rdPerTurnAround::8192-9215           67      3.32%     91.88% # Reads before turning the bus around for writes
system.mem_ctrl.rdPerTurnAround::9216-10239           40      1.98%     93.86% # Reads before turning the bus around for writes
system.mem_ctrl.rdPerTurnAround::10240-11263           23      1.14%     95.00% # Reads before turning the bus around for writes
system.mem_ctrl.rdPerTurnAround::11264-12287           11      0.54%     95.54% # Reads before turning the bus around for writes
system.mem_ctrl.rdPerTurnAround::12288-13311           16      0.79%     96.34% # Reads before turning the bus around for writes
system.mem_ctrl.rdPerTurnAround::13312-14335           10      0.50%     96.83% # Reads before turning the bus around for writes
system.mem_ctrl.rdPerTurnAround::14336-15359            7      0.35%     97.18% # Reads before turning the bus around for writes
system.mem_ctrl.rdPerTurnAround::15360-16383           11      0.54%     97.72% # Reads before turning the bus around for writes
system.mem_ctrl.rdPerTurnAround::16384-17407            7      0.35%     98.07% # Reads before turning the bus around for writes
system.mem_ctrl.rdPerTurnAround::17408-18431            6      0.30%     98.37% # Reads before turning the bus around for writes
system.mem_ctrl.rdPerTurnAround::18432-19455            7      0.35%     98.71% # Reads before turning the bus around for writes
system.mem_ctrl.rdPerTurnAround::19456-20479            5      0.25%     98.96% # Reads before turning the bus around for writes
system.mem_ctrl.rdPerTurnAround::20480-21503            5      0.25%     99.21% # Reads before turning the bus around for writes
system.mem_ctrl.rdPerTurnAround::21504-22527            5      0.25%     99.46% # Reads before turning the bus around for writes
system.mem_ctrl.rdPerTurnAround::22528-23551            5      0.25%     99.70% # Reads before turning the bus around for writes
system.mem_ctrl.rdPerTurnAround::23552-24575            1      0.05%     99.75% # Reads before turning the bus around for writes
system.mem_ctrl.rdPerTurnAround::24576-25599            1      0.05%     99.80% # Reads before turning the bus around for writes
system.mem_ctrl.rdPerTurnAround::25600-26623            2      0.10%     99.90% # Reads before turning the bus around for writes
system.mem_ctrl.rdPerTurnAround::26624-27647            1      0.05%     99.95% # Reads before turning the bus around for writes
system.mem_ctrl.rdPerTurnAround::29696-30719            1      0.05%    100.00% # Reads before turning the bus around for writes
system.mem_ctrl.rdPerTurnAround::total           2020                       # Reads before turning the bus around for writes
system.mem_ctrl.wrPerTurnAround::samples         2020                       # Writes before turning the bus around for reads
system.mem_ctrl.wrPerTurnAround::mean       16.049010                       # Writes before turning the bus around for reads
system.mem_ctrl.wrPerTurnAround::gmean      16.045794                       # Writes before turning the bus around for reads
system.mem_ctrl.wrPerTurnAround::stdev       0.337626                       # Writes before turning the bus around for reads
system.mem_ctrl.wrPerTurnAround::16              1975     97.77%     97.77% # Writes before turning the bus around for reads
system.mem_ctrl.wrPerTurnAround::18                40      1.98%     99.75% # Writes before turning the bus around for reads
system.mem_ctrl.wrPerTurnAround::19                 2      0.10%     99.85% # Writes before turning the bus around for reads
system.mem_ctrl.wrPerTurnAround::20                 2      0.10%     99.95% # Writes before turning the bus around for reads
system.mem_ctrl.wrPerTurnAround::21                 1      0.05%    100.00% # Writes before turning the bus around for reads
system.mem_ctrl.wrPerTurnAround::total           2020                       # Writes before turning the bus around for reads
system.mem_ctrl.bytesReadDRAM               482894592                       # Total number of bytes read from DRAM
system.mem_ctrl.bytesReadWrQ                  8982656                       # Total number of bytes read from write queue
system.mem_ctrl.bytesWritten                  2074816                       # Total number of bytes written to DRAM
system.mem_ctrl.bytesReadSys                 58697447                       # Total read bytes from the system interface side
system.mem_ctrl.bytesWrittenSys               4530267                       # Total written bytes from the system interface side
system.mem_ctrl.avgRdBW                       1170.84                       # Average DRAM read bandwidth in MiByte/s
system.mem_ctrl.avgWrBW                          5.03                       # Average achieved write bandwidth in MiByte/s
system.mem_ctrl.avgRdBWSys                     142.32                       # Average system read bandwidth in MiByte/s
system.mem_ctrl.avgWrBWSys                      10.98                       # Average system write bandwidth in MiByte/s
system.mem_ctrl.peakBW                       12800.00                       # Theoretical peak bandwidth in MiByte/s
system.mem_ctrl.busUtil                          9.19                       # Data bus utilization in percentage
system.mem_ctrl.busUtilRead                      9.15                       # Data bus utilization in percentage for reads
system.mem_ctrl.busUtilWrite                     0.04                       # Data bus utilization in percentage for writes
system.mem_ctrl.totGap                   412435365000                       # Total gap between requests
system.mem_ctrl.avgGap                       49356.54                       # Average gap between requests
system.mem_ctrl.masterReadBytes::.cpu.inst     51850536                       # Per-master bytes read from memory
system.mem_ctrl.masterReadBytes::.cpu.data      5960669                       # Per-master bytes read from memory
system.mem_ctrl.masterWriteBytes::.cpu.data       236540                       # Per-master bytes write to memory
system.mem_ctrl.masterReadRate::.cpu.inst 125717944.482569471002                       # Per-master bytes read from memory rate (Bytes/sec)
system.mem_ctrl.masterReadRate::.cpu.data 14452368.523653697222                       # Per-master bytes read from memory rate (Bytes/sec)
system.mem_ctrl.masterWriteRate::.cpu.data 573520.061353020254                       # Per-master bytes write to memory rate (Bytes/sec)
system.mem_ctrl.masterReadAccesses::.cpu.inst      6481317                       # Per-master read serviced memory accesses
system.mem_ctrl.masterReadAccesses::.cpu.data      1204265                       # Per-master read serviced memory accesses
system.mem_ctrl.masterWriteAccesses::.cpu.data       670664                       # Per-master write serviced memory accesses
system.mem_ctrl.masterReadTotalLat::.cpu.inst 140340689500                       # Per-master read total memory access latency
system.mem_ctrl.masterReadTotalLat::.cpu.data  26805428000                       # Per-master read total memory access latency
system.mem_ctrl.masterWriteTotalLat::.cpu.data 10894689380750                       # Per-master write total memory access latency
system.mem_ctrl.masterReadAvgLat::.cpu.inst     21653.11                       # Per-master read average memory access latency
system.mem_ctrl.masterReadAvgLat::.cpu.data     22258.75                       # Per-master read average memory access latency
system.mem_ctrl.masterWriteAvgLat::.cpu.data  16244631.26                       # Per-master write average memory access latency
system.mem_ctrl.pageHitRate                     89.78                       # Row buffer hit rate, read and write combined
system.mem_ctrl.rank1.actEnergy            2727251520                       # Energy for activate commands per rank (pJ)
system.mem_ctrl.rank1.preEnergy            1449557175                       # Energy for precharge commands per rank (pJ)
system.mem_ctrl.rank1.readEnergy          33120268020                       # Energy for read commands per rank (pJ)
system.mem_ctrl.rank1.writeEnergy            42558660                       # Energy for write commands per rank (pJ)
system.mem_ctrl.rank1.refreshEnergy      32556866160.000004                       # Energy for refresh commands per rank (pJ)
system.mem_ctrl.rank1.actBackEnergy      159091893450                       # Energy for active background per rank (pJ)
system.mem_ctrl.rank1.preBackEnergy       24403089120                       # Energy for precharge background per rank (pJ)
system.mem_ctrl.rank1.actPowerDownEnergy            0                       # Energy for active power-down per rank (pJ)
system.mem_ctrl.rank1.prePowerDownEnergy            0                       # Energy for precharge power-down per rank (pJ)
system.mem_ctrl.rank1.selfRefreshEnergy             0                       # Energy for self refresh per rank (pJ)
system.mem_ctrl.rank1.totalEnergy        253391484105                       # Total energy per rank (pJ)
system.mem_ctrl.rank1.averagePower         614.378539                       # Core power per rank (mW)
system.mem_ctrl.rank1.totalIdleTime                 0                       # Total Idle time Per DRAM Rank
system.mem_ctrl.rank1.memoryStateTime::IDLE  61040821000                       # Time in different power states
system.mem_ctrl.rank1.memoryStateTime::REF  13771940000                       # Time in different power states
system.mem_ctrl.rank1.memoryStateTime::SREF            0                       # Time in different power states
system.mem_ctrl.rank1.memoryStateTime::PRE_PDN            0                       # Time in different power states
system.mem_ctrl.rank1.memoryStateTime::ACT 337622681000                       # Time in different power states
system.mem_ctrl.rank1.memoryStateTime::ACT_PDN            0                       # Time in different power states
system.mem_ctrl.rank0.actEnergy            2799436920                       # Energy for activate commands per rank (pJ)
system.mem_ctrl.rank0.preEnergy            1487924625                       # Energy for precharge commands per rank (pJ)
system.mem_ctrl.rank0.readEnergy          20752659900                       # Energy for read commands per rank (pJ)
system.mem_ctrl.rank0.writeEnergy           126668520                       # Energy for write commands per rank (pJ)
system.mem_ctrl.rank0.refreshEnergy      32556866160.000004                       # Energy for refresh commands per rank (pJ)
system.mem_ctrl.rank0.actBackEnergy      177545533440                       # Energy for active background per rank (pJ)
system.mem_ctrl.rank0.preBackEnergy        8863181760                       # Energy for precharge background per rank (pJ)
system.mem_ctrl.rank0.actPowerDownEnergy            0                       # Energy for active power-down per rank (pJ)
system.mem_ctrl.rank0.prePowerDownEnergy            0                       # Energy for precharge power-down per rank (pJ)
system.mem_ctrl.rank0.selfRefreshEnergy             0                       # Energy for self refresh per rank (pJ)
system.mem_ctrl.rank0.totalEnergy        244132271325                       # Total energy per rank (pJ)
system.mem_ctrl.rank0.averagePower         591.928449                       # Core power per rank (mW)
system.mem_ctrl.rank0.totalIdleTime                 0                       # Total Idle time Per DRAM Rank
system.mem_ctrl.rank0.memoryStateTime::IDLE  21347903500                       # Time in different power states
system.mem_ctrl.rank0.memoryStateTime::REF  13771940000                       # Time in different power states
system.mem_ctrl.rank0.memoryStateTime::SREF            0                       # Time in different power states
system.mem_ctrl.rank0.memoryStateTime::PRE_PDN            0                       # Time in different power states
system.mem_ctrl.rank0.memoryStateTime::ACT 377315598500                       # Time in different power states
system.mem_ctrl.rank0.memoryStateTime::ACT_PDN            0                       # Time in different power states
system.mem_ctrl.power_state.pwrStateResidencyTicks::UNDEFINED 412435442000                       # Cumulative time (in ticks) in various power states
system.cache.blocked_cycles::no_mshrs               0                       # number of cycles access was blocked
system.cache.blocked_cycles::no_targets             0                       # number of cycles access was blocked
system.cache.blocked::no_mshrs                      0                       # number of cycles access was blocked
system.cache.blocked::no_targets                    0                       # number of cycles access was blocked
system.cache.avg_blocked_cycles::no_mshrs          nan                       # average number of cycles each access was blocked
system.cache.avg_blocked_cycles::no_targets          nan                       # average number of cycles each access was blocked
system.cache.replacements                           0                       # number of replacements
system.cache.power_state.pwrStateResidencyTicks::UNDEFINED 412435442000                       # Cumulative time (in ticks) in various power states
system.cache.tags.tagsinuse                         0                       # Cycle average of tags in use
system.cache.tags.total_refs                        0                       # Total number of references to valid blocks.
system.cache.tags.sampled_refs                      0                       # Sample count of references to valid blocks.
system.cache.tags.avg_refs                        nan                       # Average number of references to valid blocks.
system.cache.tags.warmup_cycle                      0                       # Cycle when the warmup percentage was hit.
system.cache.tags.tag_accesses                      0                       # Number of tag accesses
system.cache.tags.data_accesses                     0                       # Number of data accesses
system.cache.tags.power_state.pwrStateResidencyTicks::UNDEFINED 412435442000                       # Cumulative time (in ticks) in various power states
system.clk_domain.clock                          1000                       # Clock period in ticks
system.clk_domain.voltage_domain.voltage            1                       # Voltage in Volts
system.cachebus.snoops                              0                       # Total snoops (count)
system.cachebus.snoopTraffic                        0                       # Total snoop traffic (bytes)
system.cachebus.snoop_fanout::samples               0                       # Request fanout histogram
system.cachebus.snoop_fanout::mean                nan                       # Request fanout histogram
system.cachebus.snoop_fanout::stdev               nan                       # Request fanout histogram
system.cachebus.snoop_fanout::underflows            0                       # Request fanout histogram
system.cachebus.snoop_fanout::0                     0                       # Request fanout histogram
system.cachebus.snoop_fanout::overflows             0                       # Request fanout histogram
system.cachebus.snoop_fanout::min_value             0                       # Request fanout histogram
system.cachebus.snoop_fanout::max_value             0                       # Request fanout histogram
system.cachebus.snoop_fanout::total                 0                       # Request fanout histogram
system.cachebus.power_state.pwrStateResidencyTicks::UNDEFINED 412435442000                       # Cumulative time (in ticks) in various power states
system.cpu.dtb.walker.power_state.pwrStateResidencyTicks::UNDEFINED 412435442000                       # Cumulative time (in ticks) in various power states
system.cpu.interrupts.clk_domain.clock          16000                       # Clock period in ticks
system.cpu.itb.walker.power_state.pwrStateResidencyTicks::UNDEFINED 412435442000                       # Cumulative time (in ticks) in various power states
system.cpu.power_state.numTransitions               1                       # Number of power state transitions
system.cpu.power_state.pwrStateResidencyTicks::ON 412435442000                       # Cumulative time (in ticks) in various power states

---------- End Simulation Statistics   ----------
