
---------- Begin Simulation Statistics ----------
final_tick                                 3490838000                       # Number of ticks from beginning of simulation (restored from checkpoints and never reset)
host_inst_rate                                 100684                       # Simulator instruction rate (inst/s)
host_mem_usage                               34238488                       # Number of bytes of host memory used
host_op_rate                                   178821                       # Simulator op (including micro ops) rate (op/s)
host_seconds                                     9.93                       # Real time elapsed on the host
host_tick_rate                              351447338                       # Simulator tick rate (ticks/s)
sim_freq                                 1000000000000                       # Frequency of simulated ticks
sim_insts                                     1000044                       # Number of instructions simulated
sim_ops                                       1776176                       # Number of ops (including micro ops) simulated
sim_seconds                                  0.003491                       # Number of seconds simulated
sim_ticks                                  3490838000                       # Number of ticks simulated
system.cpu.Branches                            188595                       # Number of branches fetched
system.cpu.committedInsts                     1000044                       # Number of instructions committed
system.cpu.committedOps                       1776176                       # Number of ops (including micro ops) committed
system.cpu.dtb.rdAccesses                      203372                       # TLB accesses on read requests
system.cpu.dtb.rdMisses                            21                       # TLB misses on read requests
system.cpu.dtb.wrAccesses                       99834                       # TLB accesses on write requests
system.cpu.dtb.wrMisses                            37                       # TLB misses on write requests
system.cpu.idle_fraction                            0                       # Percentage of idle cycles
system.cpu.itb.rdAccesses                           0                       # TLB accesses on read requests
system.cpu.itb.rdMisses                             0                       # TLB misses on read requests
system.cpu.itb.wrAccesses                     1268563                       # TLB accesses on write requests
system.cpu.itb.wrMisses                            83                       # TLB misses on write requests
system.cpu.not_idle_fraction                        1                       # Percentage of non-idle cycles
system.cpu.numCycles                          3490827                       # number of cpu cycles simulated
system.cpu.numWorkItemsCompleted                    0                       # number of work items this cpu completed
system.cpu.numWorkItemsStarted                      0                       # number of work items this cpu started
system.cpu.num_busy_cycles                    3490827                       # Number of busy cycles
system.cpu.num_cc_register_reads              1305133                       # number of times the CC registers were read
system.cpu.num_cc_register_writes             1000612                       # number of times the CC registers were written
system.cpu.num_conditional_control_insts       166924                       # number of instructions that are conditional controls
system.cpu.num_fp_alu_accesses                  11990                       # Number of float alu accesses
system.cpu.num_fp_insts                         11990                       # number of float instructions
system.cpu.num_fp_register_reads                15122                       # number of times the floating registers were read
system.cpu.num_fp_register_writes                5614                       # number of times the floating registers were written
system.cpu.num_func_calls                       10869                       # number of times a function call or return occured
system.cpu.num_idle_cycles                          0                       # Number of idle cycles
system.cpu.num_int_alu_accesses               1761818                       # Number of integer alu accesses
system.cpu.num_int_insts                      1761818                       # number of integer instructions
system.cpu.num_int_register_reads             3292156                       # number of times the integer registers were read
system.cpu.num_int_register_writes            1489074                       # number of times the integer registers were written
system.cpu.num_load_insts                      203287                       # Number of load instructions
system.cpu.num_mem_refs                        303043                       # number of memory refs
system.cpu.num_store_insts                      99756                       # Number of store instructions
system.cpu.num_vec_alu_accesses                     0                       # Number of vector alu accesses
system.cpu.num_vec_insts                            0                       # number of vector instructions
system.cpu.num_vec_register_reads                   0                       # number of times the vector registers were read
system.cpu.num_vec_register_writes                  0                       # number of times the vector registers were written
system.cpu.op_class::No_OpClass                  7702      0.43%      0.43% # Class of executed instruction
system.cpu.op_class::IntAlu                   1447378     81.49%     81.92% # Class of executed instruction
system.cpu.op_class::IntMult                    11298      0.64%     82.56% # Class of executed instruction
system.cpu.op_class::IntDiv                      1859      0.10%     82.66% # Class of executed instruction
system.cpu.op_class::FloatAdd                     597      0.03%     82.70% # Class of executed instruction
system.cpu.op_class::FloatCmp                       0      0.00%     82.70% # Class of executed instruction
system.cpu.op_class::FloatCvt                       0      0.00%     82.70% # Class of executed instruction
system.cpu.op_class::FloatMult                      0      0.00%     82.70% # Class of executed instruction
system.cpu.op_class::FloatMultAcc                   0      0.00%     82.70% # Class of executed instruction
system.cpu.op_class::FloatDiv                       0      0.00%     82.70% # Class of executed instruction
system.cpu.op_class::FloatMisc                      0      0.00%     82.70% # Class of executed instruction
system.cpu.op_class::FloatSqrt                      0      0.00%     82.70% # Class of executed instruction
system.cpu.op_class::SimdAdd                       52      0.00%     82.70% # Class of executed instruction
system.cpu.op_class::SimdAddAcc                     0      0.00%     82.70% # Class of executed instruction
system.cpu.op_class::SimdAlu                     1034      0.06%     82.76% # Class of executed instruction
system.cpu.op_class::SimdCmp                       18      0.00%     82.76% # Class of executed instruction
system.cpu.op_class::SimdCvt                      534      0.03%     82.79% # Class of executed instruction
system.cpu.op_class::SimdMisc                    2181      0.12%     82.91% # Class of executed instruction
system.cpu.op_class::SimdMult                       0      0.00%     82.91% # Class of executed instruction
system.cpu.op_class::SimdMultAcc                    0      0.00%     82.91% # Class of executed instruction
system.cpu.op_class::SimdShift                     78      0.00%     82.92% # Class of executed instruction
system.cpu.op_class::SimdShiftAcc                   0      0.00%     82.92% # Class of executed instruction
system.cpu.op_class::SimdDiv                        0      0.00%     82.92% # Class of executed instruction
system.cpu.op_class::SimdSqrt                       0      0.00%     82.92% # Class of executed instruction
system.cpu.op_class::SimdFloatAdd                 207      0.01%     82.93% # Class of executed instruction
system.cpu.op_class::SimdFloatAlu                   0      0.00%     82.93% # Class of executed instruction
system.cpu.op_class::SimdFloatCmp                   0      0.00%     82.93% # Class of executed instruction
system.cpu.op_class::SimdFloatCvt                 207      0.01%     82.94% # Class of executed instruction
system.cpu.op_class::SimdFloatDiv                   0      0.00%     82.94% # Class of executed instruction
system.cpu.op_class::SimdFloatMisc                  0      0.00%     82.94% # Class of executed instruction
system.cpu.op_class::SimdFloatMult                  0      0.00%     82.94% # Class of executed instruction
system.cpu.op_class::SimdFloatMultAcc               0      0.00%     82.94% # Class of executed instruction
system.cpu.op_class::SimdFloatSqrt                  0      0.00%     82.94% # Class of executed instruction
system.cpu.op_class::SimdReduceAdd                  0      0.00%     82.94% # Class of executed instruction
system.cpu.op_class::SimdReduceAlu                  0      0.00%     82.94% # Class of executed instruction
system.cpu.op_class::SimdReduceCmp                  0      0.00%     82.94% # Class of executed instruction
system.cpu.op_class::SimdFloatReduceAdd             0      0.00%     82.94% # Class of executed instruction
system.cpu.op_class::SimdFloatReduceCmp             0      0.00%     82.94% # Class of executed instruction
system.cpu.op_class::SimdAes                        0      0.00%     82.94% # Class of executed instruction
system.cpu.op_class::SimdAesMix                     0      0.00%     82.94% # Class of executed instruction
system.cpu.op_class::SimdSha1Hash                   0      0.00%     82.94% # Class of executed instruction
system.cpu.op_class::SimdSha1Hash2                  0      0.00%     82.94% # Class of executed instruction
system.cpu.op_class::SimdSha256Hash                 0      0.00%     82.94% # Class of executed instruction
system.cpu.op_class::SimdSha256Hash2                0      0.00%     82.94% # Class of executed instruction
system.cpu.op_class::SimdShaSigma2                  0      0.00%     82.94% # Class of executed instruction
system.cpu.op_class::SimdShaSigma3                  0      0.00%     82.94% # Class of executed instruction
system.cpu.op_class::SimdPredAlu                    0      0.00%     82.94% # Class of executed instruction
system.cpu.op_class::MemRead                   202332     11.39%     94.33% # Class of executed instruction
system.cpu.op_class::MemWrite                   94238      5.31%     99.64% # Class of executed instruction
system.cpu.op_class::FloatMemRead                 955      0.05%     99.69% # Class of executed instruction
system.cpu.op_class::FloatMemWrite               5518      0.31%    100.00% # Class of executed instruction
system.cpu.op_class::IprAccess                      0      0.00%    100.00% # Class of executed instruction
system.cpu.op_class::InstPrefetch                   0      0.00%    100.00% # Class of executed instruction
system.cpu.op_class::total                    1776188                       # Class of executed instruction
system.cpu.workload.numSyscalls                    48                       # Number of system calls
system.dynamic_cache.flushTicks                     0                       # Ticks taken to flush
system.dynamic_cache.numFlushes                     0                       # Number of Flushes Taken
system.cache_small.demand_hits::.cpu.inst         3580                       # number of demand (read+write) hits
system.cache_small.demand_hits::.cpu.data         1381                       # number of demand (read+write) hits
system.cache_small.demand_hits::total            4961                       # number of demand (read+write) hits
system.cache_small.overall_hits::.cpu.inst         3580                       # number of overall hits
system.cache_small.overall_hits::.cpu.data         1381                       # number of overall hits
system.cache_small.overall_hits::total           4961                       # number of overall hits
system.cache_small.demand_misses::.cpu.inst         1740                       # number of demand (read+write) misses
system.cache_small.demand_misses::.cpu.data         1123                       # number of demand (read+write) misses
system.cache_small.demand_misses::total          2863                       # number of demand (read+write) misses
system.cache_small.overall_misses::.cpu.inst         1740                       # number of overall misses
system.cache_small.overall_misses::.cpu.data         1123                       # number of overall misses
system.cache_small.overall_misses::total         2863                       # number of overall misses
system.cache_small.demand_miss_latency::.cpu.inst    102326000                       # number of demand (read+write) miss cycles
system.cache_small.demand_miss_latency::.cpu.data     67001000                       # number of demand (read+write) miss cycles
system.cache_small.demand_miss_latency::total    169327000                       # number of demand (read+write) miss cycles
system.cache_small.overall_miss_latency::.cpu.inst    102326000                       # number of overall miss cycles
system.cache_small.overall_miss_latency::.cpu.data     67001000                       # number of overall miss cycles
system.cache_small.overall_miss_latency::total    169327000                       # number of overall miss cycles
system.cache_small.demand_accesses::.cpu.inst         5320                       # number of demand (read+write) accesses
system.cache_small.demand_accesses::.cpu.data         2504                       # number of demand (read+write) accesses
system.cache_small.demand_accesses::total         7824                       # number of demand (read+write) accesses
system.cache_small.overall_accesses::.cpu.inst         5320                       # number of overall (read+write) accesses
system.cache_small.overall_accesses::.cpu.data         2504                       # number of overall (read+write) accesses
system.cache_small.overall_accesses::total         7824                       # number of overall (read+write) accesses
system.cache_small.demand_miss_rate::.cpu.inst     0.327068                       # miss rate for demand accesses
system.cache_small.demand_miss_rate::.cpu.data     0.448482                       # miss rate for demand accesses
system.cache_small.demand_miss_rate::total     0.365925                       # miss rate for demand accesses
system.cache_small.overall_miss_rate::.cpu.inst     0.327068                       # miss rate for overall accesses
system.cache_small.overall_miss_rate::.cpu.data     0.448482                       # miss rate for overall accesses
system.cache_small.overall_miss_rate::total     0.365925                       # miss rate for overall accesses
system.cache_small.demand_avg_miss_latency::.cpu.inst 58808.045977                       # average overall miss latency
system.cache_small.demand_avg_miss_latency::.cpu.data 59662.511131                       # average overall miss latency
system.cache_small.demand_avg_miss_latency::total 59143.206427                       # average overall miss latency
system.cache_small.overall_avg_miss_latency::.cpu.inst 58808.045977                       # average overall miss latency
system.cache_small.overall_avg_miss_latency::.cpu.data 59662.511131                       # average overall miss latency
system.cache_small.overall_avg_miss_latency::total 59143.206427                       # average overall miss latency
system.cache_small.blocked_cycles::no_mshrs            0                       # number of cycles access was blocked
system.cache_small.blocked_cycles::no_targets            0                       # number of cycles access was blocked
system.cache_small.blocked::no_mshrs                0                       # number of cycles access was blocked
system.cache_small.blocked::no_targets              0                       # number of cycles access was blocked
system.cache_small.avg_blocked_cycles::no_mshrs          nan                       # average number of cycles each access was blocked
system.cache_small.avg_blocked_cycles::no_targets          nan                       # average number of cycles each access was blocked
system.cache_small.demand_mshr_misses::.cpu.inst         1740                       # number of demand (read+write) MSHR misses
system.cache_small.demand_mshr_misses::.cpu.data         1123                       # number of demand (read+write) MSHR misses
system.cache_small.demand_mshr_misses::total         2863                       # number of demand (read+write) MSHR misses
system.cache_small.overall_mshr_misses::.cpu.inst         1740                       # number of overall MSHR misses
system.cache_small.overall_mshr_misses::.cpu.data         1123                       # number of overall MSHR misses
system.cache_small.overall_mshr_misses::total         2863                       # number of overall MSHR misses
system.cache_small.demand_mshr_miss_latency::.cpu.inst     98846000                       # number of demand (read+write) MSHR miss cycles
system.cache_small.demand_mshr_miss_latency::.cpu.data     64755000                       # number of demand (read+write) MSHR miss cycles
system.cache_small.demand_mshr_miss_latency::total    163601000                       # number of demand (read+write) MSHR miss cycles
system.cache_small.overall_mshr_miss_latency::.cpu.inst     98846000                       # number of overall MSHR miss cycles
system.cache_small.overall_mshr_miss_latency::.cpu.data     64755000                       # number of overall MSHR miss cycles
system.cache_small.overall_mshr_miss_latency::total    163601000                       # number of overall MSHR miss cycles
system.cache_small.demand_mshr_miss_rate::.cpu.inst     0.327068                       # mshr miss rate for demand accesses
system.cache_small.demand_mshr_miss_rate::.cpu.data     0.448482                       # mshr miss rate for demand accesses
system.cache_small.demand_mshr_miss_rate::total     0.365925                       # mshr miss rate for demand accesses
system.cache_small.overall_mshr_miss_rate::.cpu.inst     0.327068                       # mshr miss rate for overall accesses
system.cache_small.overall_mshr_miss_rate::.cpu.data     0.448482                       # mshr miss rate for overall accesses
system.cache_small.overall_mshr_miss_rate::total     0.365925                       # mshr miss rate for overall accesses
system.cache_small.demand_avg_mshr_miss_latency::.cpu.inst 56808.045977                       # average overall mshr miss latency
system.cache_small.demand_avg_mshr_miss_latency::.cpu.data 57662.511131                       # average overall mshr miss latency
system.cache_small.demand_avg_mshr_miss_latency::total 57143.206427                       # average overall mshr miss latency
system.cache_small.overall_avg_mshr_miss_latency::.cpu.inst 56808.045977                       # average overall mshr miss latency
system.cache_small.overall_avg_mshr_miss_latency::.cpu.data 57662.511131                       # average overall mshr miss latency
system.cache_small.overall_avg_mshr_miss_latency::total 57143.206427                       # average overall mshr miss latency
system.cache_small.replacements                     0                       # number of replacements
system.cache_small.ReadReq_hits::.cpu.inst         3580                       # number of ReadReq hits
system.cache_small.ReadReq_hits::.cpu.data         1381                       # number of ReadReq hits
system.cache_small.ReadReq_hits::total           4961                       # number of ReadReq hits
system.cache_small.ReadReq_misses::.cpu.inst         1740                       # number of ReadReq misses
system.cache_small.ReadReq_misses::.cpu.data         1123                       # number of ReadReq misses
system.cache_small.ReadReq_misses::total         2863                       # number of ReadReq misses
system.cache_small.ReadReq_miss_latency::.cpu.inst    102326000                       # number of ReadReq miss cycles
system.cache_small.ReadReq_miss_latency::.cpu.data     67001000                       # number of ReadReq miss cycles
system.cache_small.ReadReq_miss_latency::total    169327000                       # number of ReadReq miss cycles
system.cache_small.ReadReq_accesses::.cpu.inst         5320                       # number of ReadReq accesses(hits+misses)
system.cache_small.ReadReq_accesses::.cpu.data         2504                       # number of ReadReq accesses(hits+misses)
system.cache_small.ReadReq_accesses::total         7824                       # number of ReadReq accesses(hits+misses)
system.cache_small.ReadReq_miss_rate::.cpu.inst     0.327068                       # miss rate for ReadReq accesses
system.cache_small.ReadReq_miss_rate::.cpu.data     0.448482                       # miss rate for ReadReq accesses
system.cache_small.ReadReq_miss_rate::total     0.365925                       # miss rate for ReadReq accesses
system.cache_small.ReadReq_avg_miss_latency::.cpu.inst 58808.045977                       # average ReadReq miss latency
system.cache_small.ReadReq_avg_miss_latency::.cpu.data 59662.511131                       # average ReadReq miss latency
system.cache_small.ReadReq_avg_miss_latency::total 59143.206427                       # average ReadReq miss latency
system.cache_small.ReadReq_mshr_misses::.cpu.inst         1740                       # number of ReadReq MSHR misses
system.cache_small.ReadReq_mshr_misses::.cpu.data         1123                       # number of ReadReq MSHR misses
system.cache_small.ReadReq_mshr_misses::total         2863                       # number of ReadReq MSHR misses
system.cache_small.ReadReq_mshr_miss_latency::.cpu.inst     98846000                       # number of ReadReq MSHR miss cycles
system.cache_small.ReadReq_mshr_miss_latency::.cpu.data     64755000                       # number of ReadReq MSHR miss cycles
system.cache_small.ReadReq_mshr_miss_latency::total    163601000                       # number of ReadReq MSHR miss cycles
system.cache_small.ReadReq_mshr_miss_rate::.cpu.inst     0.327068                       # mshr miss rate for ReadReq accesses
system.cache_small.ReadReq_mshr_miss_rate::.cpu.data     0.448482                       # mshr miss rate for ReadReq accesses
system.cache_small.ReadReq_mshr_miss_rate::total     0.365925                       # mshr miss rate for ReadReq accesses
system.cache_small.ReadReq_avg_mshr_miss_latency::.cpu.inst 56808.045977                       # average ReadReq mshr miss latency
system.cache_small.ReadReq_avg_mshr_miss_latency::.cpu.data 57662.511131                       # average ReadReq mshr miss latency
system.cache_small.ReadReq_avg_mshr_miss_latency::total 57143.206427                       # average ReadReq mshr miss latency
system.cache_small.WritebackDirty_hits::.writebacks         1674                       # number of WritebackDirty hits
system.cache_small.WritebackDirty_hits::total         1674                       # number of WritebackDirty hits
system.cache_small.WritebackDirty_accesses::.writebacks         1674                       # number of WritebackDirty accesses(hits+misses)
system.cache_small.WritebackDirty_accesses::total         1674                       # number of WritebackDirty accesses(hits+misses)
system.cache_small.power_state.pwrStateResidencyTicks::UNDEFINED   3490838000                       # Cumulative time (in ticks) in various power states
system.cache_small.tags.tagsinuse         2233.003001                       # Cycle average of tags in use
system.cache_small.tags.total_refs                  0                       # Total number of references to valid blocks.
system.cache_small.tags.sampled_refs                0                       # Sample count of references to valid blocks.
system.cache_small.tags.avg_refs                  nan                       # Average number of references to valid blocks.
system.cache_small.tags.warmup_cycle            76000                       # Cycle when the warmup percentage was hit.
system.cache_small.tags.occ_blocks::.cpu.inst  1295.452733                       # Average occupied blocks per requestor
system.cache_small.tags.occ_blocks::.cpu.data   937.550268                       # Average occupied blocks per requestor
system.cache_small.tags.occ_percent::.cpu.inst     0.039534                       # Average percentage of cache occupancy
system.cache_small.tags.occ_percent::.cpu.data     0.028612                       # Average percentage of cache occupancy
system.cache_small.tags.occ_percent::total     0.068146                       # Average percentage of cache occupancy
system.cache_small.tags.occ_task_id_blocks::1024         2863                       # Occupied blocks per task id
system.cache_small.tags.age_task_id_blocks_1024::1           60                       # Occupied blocks per task id
system.cache_small.tags.age_task_id_blocks_1024::2           29                       # Occupied blocks per task id
system.cache_small.tags.age_task_id_blocks_1024::3         2774                       # Occupied blocks per task id
system.cache_small.tags.occ_task_id_percent::1024     0.087372                       # Percentage of cache occupancy per task id
system.cache_small.tags.tag_accesses            12361                       # Number of tag accesses
system.cache_small.tags.data_accesses           12361                       # Number of data accesses
system.cache_small.tags.power_state.pwrStateResidencyTicks::UNDEFINED   3490838000                       # Cumulative time (in ticks) in various power states
system.icache.demand_hits::.cpu.inst          1261866                       # number of demand (read+write) hits
system.icache.demand_hits::total              1261866                       # number of demand (read+write) hits
system.icache.overall_hits::.cpu.inst         1261866                       # number of overall hits
system.icache.overall_hits::total             1261866                       # number of overall hits
system.icache.demand_misses::.cpu.inst           6697                       # number of demand (read+write) misses
system.icache.demand_misses::total               6697                       # number of demand (read+write) misses
system.icache.overall_misses::.cpu.inst          6697                       # number of overall misses
system.icache.overall_misses::total              6697                       # number of overall misses
system.icache.demand_miss_latency::.cpu.inst    220730000                       # number of demand (read+write) miss cycles
system.icache.demand_miss_latency::total    220730000                       # number of demand (read+write) miss cycles
system.icache.overall_miss_latency::.cpu.inst    220730000                       # number of overall miss cycles
system.icache.overall_miss_latency::total    220730000                       # number of overall miss cycles
system.icache.demand_accesses::.cpu.inst      1268563                       # number of demand (read+write) accesses
system.icache.demand_accesses::total          1268563                       # number of demand (read+write) accesses
system.icache.overall_accesses::.cpu.inst      1268563                       # number of overall (read+write) accesses
system.icache.overall_accesses::total         1268563                       # number of overall (read+write) accesses
system.icache.demand_miss_rate::.cpu.inst     0.005279                       # miss rate for demand accesses
system.icache.demand_miss_rate::total        0.005279                       # miss rate for demand accesses
system.icache.overall_miss_rate::.cpu.inst     0.005279                       # miss rate for overall accesses
system.icache.overall_miss_rate::total       0.005279                       # miss rate for overall accesses
system.icache.demand_avg_miss_latency::.cpu.inst 32959.534120                       # average overall miss latency
system.icache.demand_avg_miss_latency::total 32959.534120                       # average overall miss latency
system.icache.overall_avg_miss_latency::.cpu.inst 32959.534120                       # average overall miss latency
system.icache.overall_avg_miss_latency::total 32959.534120                       # average overall miss latency
system.icache.blocked_cycles::no_mshrs              0                       # number of cycles access was blocked
system.icache.blocked_cycles::no_targets            0                       # number of cycles access was blocked
system.icache.blocked::no_mshrs                     0                       # number of cycles access was blocked
system.icache.blocked::no_targets                   0                       # number of cycles access was blocked
system.icache.avg_blocked_cycles::no_mshrs          nan                       # average number of cycles each access was blocked
system.icache.avg_blocked_cycles::no_targets          nan                       # average number of cycles each access was blocked
system.icache.demand_mshr_misses::.cpu.inst         6697                       # number of demand (read+write) MSHR misses
system.icache.demand_mshr_misses::total          6697                       # number of demand (read+write) MSHR misses
system.icache.overall_mshr_misses::.cpu.inst         6697                       # number of overall MSHR misses
system.icache.overall_mshr_misses::total         6697                       # number of overall MSHR misses
system.icache.demand_mshr_miss_latency::.cpu.inst    207336000                       # number of demand (read+write) MSHR miss cycles
system.icache.demand_mshr_miss_latency::total    207336000                       # number of demand (read+write) MSHR miss cycles
system.icache.overall_mshr_miss_latency::.cpu.inst    207336000                       # number of overall MSHR miss cycles
system.icache.overall_mshr_miss_latency::total    207336000                       # number of overall MSHR miss cycles
system.icache.demand_mshr_miss_rate::.cpu.inst     0.005279                       # mshr miss rate for demand accesses
system.icache.demand_mshr_miss_rate::total     0.005279                       # mshr miss rate for demand accesses
system.icache.overall_mshr_miss_rate::.cpu.inst     0.005279                       # mshr miss rate for overall accesses
system.icache.overall_mshr_miss_rate::total     0.005279                       # mshr miss rate for overall accesses
system.icache.demand_avg_mshr_miss_latency::.cpu.inst 30959.534120                       # average overall mshr miss latency
system.icache.demand_avg_mshr_miss_latency::total 30959.534120                       # average overall mshr miss latency
system.icache.overall_avg_mshr_miss_latency::.cpu.inst 30959.534120                       # average overall mshr miss latency
system.icache.overall_avg_mshr_miss_latency::total 30959.534120                       # average overall mshr miss latency
system.icache.replacements                       6441                       # number of replacements
system.icache.ReadReq_hits::.cpu.inst         1261866                       # number of ReadReq hits
system.icache.ReadReq_hits::total             1261866                       # number of ReadReq hits
system.icache.ReadReq_misses::.cpu.inst          6697                       # number of ReadReq misses
system.icache.ReadReq_misses::total              6697                       # number of ReadReq misses
system.icache.ReadReq_miss_latency::.cpu.inst    220730000                       # number of ReadReq miss cycles
system.icache.ReadReq_miss_latency::total    220730000                       # number of ReadReq miss cycles
system.icache.ReadReq_accesses::.cpu.inst      1268563                       # number of ReadReq accesses(hits+misses)
system.icache.ReadReq_accesses::total         1268563                       # number of ReadReq accesses(hits+misses)
system.icache.ReadReq_miss_rate::.cpu.inst     0.005279                       # miss rate for ReadReq accesses
system.icache.ReadReq_miss_rate::total       0.005279                       # miss rate for ReadReq accesses
system.icache.ReadReq_avg_miss_latency::.cpu.inst 32959.534120                       # average ReadReq miss latency
system.icache.ReadReq_avg_miss_latency::total 32959.534120                       # average ReadReq miss latency
system.icache.ReadReq_mshr_misses::.cpu.inst         6697                       # number of ReadReq MSHR misses
system.icache.ReadReq_mshr_misses::total         6697                       # number of ReadReq MSHR misses
system.icache.ReadReq_mshr_miss_latency::.cpu.inst    207336000                       # number of ReadReq MSHR miss cycles
system.icache.ReadReq_mshr_miss_latency::total    207336000                       # number of ReadReq MSHR miss cycles
system.icache.ReadReq_mshr_miss_rate::.cpu.inst     0.005279                       # mshr miss rate for ReadReq accesses
system.icache.ReadReq_mshr_miss_rate::total     0.005279                       # mshr miss rate for ReadReq accesses
system.icache.ReadReq_avg_mshr_miss_latency::.cpu.inst 30959.534120                       # average ReadReq mshr miss latency
system.icache.ReadReq_avg_mshr_miss_latency::total 30959.534120                       # average ReadReq mshr miss latency
system.icache.power_state.pwrStateResidencyTicks::UNDEFINED   3490838000                       # Cumulative time (in ticks) in various power states
system.icache.tags.tagsinuse               249.712053                       # Cycle average of tags in use
system.icache.tags.total_refs                  975621                       # Total number of references to valid blocks.
system.icache.tags.sampled_refs                  6441                       # Sample count of references to valid blocks.
system.icache.tags.avg_refs                151.470424                       # Average number of references to valid blocks.
system.icache.tags.warmup_cycle                 82000                       # Cycle when the warmup percentage was hit.
system.icache.tags.occ_blocks::.cpu.inst   249.712053                       # Average occupied blocks per requestor
system.icache.tags.occ_percent::.cpu.inst     0.975438                       # Average percentage of cache occupancy
system.icache.tags.occ_percent::total        0.975438                       # Average percentage of cache occupancy
system.icache.tags.occ_task_id_blocks::1024          256                       # Occupied blocks per task id
system.icache.tags.age_task_id_blocks_1024::0            1                       # Occupied blocks per task id
system.icache.tags.age_task_id_blocks_1024::1           63                       # Occupied blocks per task id
system.icache.tags.age_task_id_blocks_1024::2           28                       # Occupied blocks per task id
system.icache.tags.age_task_id_blocks_1024::3          164                       # Occupied blocks per task id
system.icache.tags.occ_task_id_percent::1024            1                       # Percentage of cache occupancy per task id
system.icache.tags.tag_accesses               1275260                       # Number of tag accesses
system.icache.tags.data_accesses              1275260                       # Number of data accesses
system.icache.tags.power_state.pwrStateResidencyTicks::UNDEFINED   3490838000                       # Cumulative time (in ticks) in various power states
system.membus.trans_dist::ReadReq                2863                       # Transaction distribution
system.membus.trans_dist::ReadResp               2863                       # Transaction distribution
system.membus.pkt_count_system.cache_small.mem_side::system.mem_ctrl.port         5726                       # Packet count per connected master and slave (bytes)
system.membus.pkt_count_system.cache_small.mem_side::total         5726                       # Packet count per connected master and slave (bytes)
system.membus.pkt_count::total                   5726                       # Packet count per connected master and slave (bytes)
system.membus.pkt_size_system.cache_small.mem_side::system.mem_ctrl.port       183232                       # Cumulative packet size per connected master and slave (bytes)
system.membus.pkt_size_system.cache_small.mem_side::total       183232                       # Cumulative packet size per connected master and slave (bytes)
system.membus.pkt_size::total                  183232                       # Cumulative packet size per connected master and slave (bytes)
system.membus.reqLayer2.occupancy             2863000                       # Layer occupancy (ticks)
system.membus.reqLayer2.utilization               0.1                       # Layer utilization (%)
system.membus.respLayer1.occupancy           15203000                       # Layer occupancy (ticks)
system.membus.respLayer1.utilization              0.4                       # Layer utilization (%)
system.membus.power_state.pwrStateResidencyTicks::UNDEFINED   3490838000                       # Cumulative time (in ticks) in various power states
system.mem_ctrl.bytes_read::.cpu.inst          111360                       # Number of bytes read from this memory
system.mem_ctrl.bytes_read::.cpu.data           71872                       # Number of bytes read from this memory
system.mem_ctrl.bytes_read::total              183232                       # Number of bytes read from this memory
system.mem_ctrl.bytes_inst_read::.cpu.inst       111360                       # Number of instructions bytes read from this memory
system.mem_ctrl.bytes_inst_read::total         111360                       # Number of instructions bytes read from this memory
system.mem_ctrl.num_reads::.cpu.inst             1740                       # Number of read requests responded to by this memory
system.mem_ctrl.num_reads::.cpu.data             1123                       # Number of read requests responded to by this memory
system.mem_ctrl.num_reads::total                 2863                       # Number of read requests responded to by this memory
system.mem_ctrl.bw_read::.cpu.inst           31900650                       # Total read bandwidth from this memory (bytes/s)
system.mem_ctrl.bw_read::.cpu.data           20588753                       # Total read bandwidth from this memory (bytes/s)
system.mem_ctrl.bw_read::total               52489402                       # Total read bandwidth from this memory (bytes/s)
system.mem_ctrl.bw_inst_read::.cpu.inst      31900650                       # Instruction read bandwidth from this memory (bytes/s)
system.mem_ctrl.bw_inst_read::total          31900650                       # Instruction read bandwidth from this memory (bytes/s)
system.mem_ctrl.bw_total::.cpu.inst          31900650                       # Total bandwidth to/from this memory (bytes/s)
system.mem_ctrl.bw_total::.cpu.data          20588753                       # Total bandwidth to/from this memory (bytes/s)
system.mem_ctrl.bw_total::total              52489402                       # Total bandwidth to/from this memory (bytes/s)
system.mem_ctrl.avgPriority_.cpu.inst::samples      1740.00                       # Average QoS priority value for accepted requests
system.mem_ctrl.avgPriority_.cpu.data::samples      1123.00                       # Average QoS priority value for accepted requests
system.mem_ctrl.priorityMinLatency       0.000000018750                       # per QoS priority minimum request to response latency (s)
system.mem_ctrl.priorityMaxLatency       0.000000576500                       # per QoS priority maximum request to response latency (s)
system.mem_ctrl.numReadWriteTurnArounds             0                       # Number of turnarounds from READ to WRITE
system.mem_ctrl.numWriteReadTurnArounds             0                       # Number of turnarounds from WRITE to READ
system.mem_ctrl.numStayReadState                 6622                       # Number of times bus staying in READ state
system.mem_ctrl.numStayWriteState                   0                       # Number of times bus staying in WRITE state
system.mem_ctrl.readReqs                         2863                       # Number of read requests accepted
system.mem_ctrl.writeReqs                           0                       # Number of write requests accepted
system.mem_ctrl.readBursts                       2863                       # Number of DRAM read bursts, including those serviced by the write queue
system.mem_ctrl.writeBursts                         0                       # Number of DRAM write bursts, including those merged in the write queue
system.mem_ctrl.servicedByWrQ                       0                       # Number of DRAM read bursts serviced by the write queue
system.mem_ctrl.mergedWrBursts                      0                       # Number of DRAM write bursts merged with an existing one
system.mem_ctrl.neitherReadNorWriteReqs             0                       # Number of requests that are neither read nor write
system.mem_ctrl.perBankRdBursts::0                260                       # Per bank write bursts
system.mem_ctrl.perBankRdBursts::1                113                       # Per bank write bursts
system.mem_ctrl.perBankRdBursts::2                257                       # Per bank write bursts
system.mem_ctrl.perBankRdBursts::3                229                       # Per bank write bursts
system.mem_ctrl.perBankRdBursts::4                149                       # Per bank write bursts
system.mem_ctrl.perBankRdBursts::5                227                       # Per bank write bursts
system.mem_ctrl.perBankRdBursts::6                224                       # Per bank write bursts
system.mem_ctrl.perBankRdBursts::7                111                       # Per bank write bursts
system.mem_ctrl.perBankRdBursts::8                 57                       # Per bank write bursts
system.mem_ctrl.perBankRdBursts::9                146                       # Per bank write bursts
system.mem_ctrl.perBankRdBursts::10               149                       # Per bank write bursts
system.mem_ctrl.perBankRdBursts::11               135                       # Per bank write bursts
system.mem_ctrl.perBankRdBursts::12               188                       # Per bank write bursts
system.mem_ctrl.perBankRdBursts::13               227                       # Per bank write bursts
system.mem_ctrl.perBankRdBursts::14               195                       # Per bank write bursts
system.mem_ctrl.perBankRdBursts::15               196                       # Per bank write bursts
system.mem_ctrl.perBankWrBursts::0                  0                       # Per bank write bursts
system.mem_ctrl.perBankWrBursts::1                  0                       # Per bank write bursts
system.mem_ctrl.perBankWrBursts::2                  0                       # Per bank write bursts
system.mem_ctrl.perBankWrBursts::3                  0                       # Per bank write bursts
system.mem_ctrl.perBankWrBursts::4                  0                       # Per bank write bursts
system.mem_ctrl.perBankWrBursts::5                  0                       # Per bank write bursts
system.mem_ctrl.perBankWrBursts::6                  0                       # Per bank write bursts
system.mem_ctrl.perBankWrBursts::7                  0                       # Per bank write bursts
system.mem_ctrl.perBankWrBursts::8                  0                       # Per bank write bursts
system.mem_ctrl.perBankWrBursts::9                  0                       # Per bank write bursts
system.mem_ctrl.perBankWrBursts::10                 0                       # Per bank write bursts
system.mem_ctrl.perBankWrBursts::11                 0                       # Per bank write bursts
system.mem_ctrl.perBankWrBursts::12                 0                       # Per bank write bursts
system.mem_ctrl.perBankWrBursts::13                 0                       # Per bank write bursts
system.mem_ctrl.perBankWrBursts::14                 0                       # Per bank write bursts
system.mem_ctrl.perBankWrBursts::15                 0                       # Per bank write bursts
system.mem_ctrl.avgRdQLen                        1.00                       # Average read queue length when enqueuing
system.mem_ctrl.avgWrQLen                        0.00                       # Average write queue length when enqueuing
system.mem_ctrl.totQLat                      20278750                       # Total ticks spent queuing
system.mem_ctrl.totBusLat                    14315000                       # Total ticks spent in databus transfers
system.mem_ctrl.totMemAccLat                 73960000                       # Total ticks spent from burst creation until serviced by the DRAM
system.mem_ctrl.avgQLat                       7083.04                       # Average queueing delay per DRAM burst
system.mem_ctrl.avgBusLat                     5000.00                       # Average bus latency per DRAM burst
system.mem_ctrl.avgMemAccLat                 25833.04                       # Average memory access latency per DRAM burst
system.mem_ctrl.numRdRetry                          0                       # Number of times read queue was full causing retry
system.mem_ctrl.numWrRetry                          0                       # Number of times write queue was full causing retry
system.mem_ctrl.readRowHits                      2239                       # Number of row buffer hits during reads
system.mem_ctrl.writeRowHits                        0                       # Number of row buffer hits during writes
system.mem_ctrl.readRowHitRate                  78.20                       # Row buffer hit rate for reads
system.mem_ctrl.writeRowHitRate                   nan                       # Row buffer hit rate for writes
system.mem_ctrl.readPktSize::0                      0                       # Read request sizes (log2)
system.mem_ctrl.readPktSize::1                      0                       # Read request sizes (log2)
system.mem_ctrl.readPktSize::2                      0                       # Read request sizes (log2)
system.mem_ctrl.readPktSize::3                      0                       # Read request sizes (log2)
system.mem_ctrl.readPktSize::4                      0                       # Read request sizes (log2)
system.mem_ctrl.readPktSize::5                      0                       # Read request sizes (log2)
system.mem_ctrl.readPktSize::6                   2863                       # Read request sizes (log2)
system.mem_ctrl.writePktSize::0                     0                       # Write request sizes (log2)
system.mem_ctrl.writePktSize::1                     0                       # Write request sizes (log2)
system.mem_ctrl.writePktSize::2                     0                       # Write request sizes (log2)
system.mem_ctrl.writePktSize::3                     0                       # Write request sizes (log2)
system.mem_ctrl.writePktSize::4                     0                       # Write request sizes (log2)
system.mem_ctrl.writePktSize::5                     0                       # Write request sizes (log2)
system.mem_ctrl.writePktSize::6                     0                       # Write request sizes (log2)
system.mem_ctrl.rdQLenPdf::0                     2863                       # What read queue length does an incoming req see
system.mem_ctrl.rdQLenPdf::1                        0                       # What read queue length does an incoming req see
system.mem_ctrl.rdQLenPdf::2                        0                       # What read queue length does an incoming req see
system.mem_ctrl.rdQLenPdf::3                        0                       # What read queue length does an incoming req see
system.mem_ctrl.rdQLenPdf::4                        0                       # What read queue length does an incoming req see
system.mem_ctrl.rdQLenPdf::5                        0                       # What read queue length does an incoming req see
system.mem_ctrl.rdQLenPdf::6                        0                       # What read queue length does an incoming req see
system.mem_ctrl.rdQLenPdf::7                        0                       # What read queue length does an incoming req see
system.mem_ctrl.rdQLenPdf::8                        0                       # What read queue length does an incoming req see
system.mem_ctrl.rdQLenPdf::9                        0                       # What read queue length does an incoming req see
system.mem_ctrl.rdQLenPdf::10                       0                       # What read queue length does an incoming req see
system.mem_ctrl.rdQLenPdf::11                       0                       # What read queue length does an incoming req see
system.mem_ctrl.rdQLenPdf::12                       0                       # What read queue length does an incoming req see
system.mem_ctrl.rdQLenPdf::13                       0                       # What read queue length does an incoming req see
system.mem_ctrl.rdQLenPdf::14                       0                       # What read queue length does an incoming req see
system.mem_ctrl.rdQLenPdf::15                       0                       # What read queue length does an incoming req see
system.mem_ctrl.rdQLenPdf::16                       0                       # What read queue length does an incoming req see
system.mem_ctrl.rdQLenPdf::17                       0                       # What read queue length does an incoming req see
system.mem_ctrl.rdQLenPdf::18                       0                       # What read queue length does an incoming req see
system.mem_ctrl.rdQLenPdf::19                       0                       # What read queue length does an incoming req see
system.mem_ctrl.rdQLenPdf::20                       0                       # What read queue length does an incoming req see
system.mem_ctrl.rdQLenPdf::21                       0                       # What read queue length does an incoming req see
system.mem_ctrl.rdQLenPdf::22                       0                       # What read queue length does an incoming req see
system.mem_ctrl.rdQLenPdf::23                       0                       # What read queue length does an incoming req see
system.mem_ctrl.rdQLenPdf::24                       0                       # What read queue length does an incoming req see
system.mem_ctrl.rdQLenPdf::25                       0                       # What read queue length does an incoming req see
system.mem_ctrl.rdQLenPdf::26                       0                       # What read queue length does an incoming req see
system.mem_ctrl.rdQLenPdf::27                       0                       # What read queue length does an incoming req see
system.mem_ctrl.rdQLenPdf::28                       0                       # What read queue length does an incoming req see
system.mem_ctrl.rdQLenPdf::29                       0                       # What read queue length does an incoming req see
system.mem_ctrl.rdQLenPdf::30                       0                       # What read queue length does an incoming req see
system.mem_ctrl.rdQLenPdf::31                       0                       # What read queue length does an incoming req see
system.mem_ctrl.wrQLenPdf::0                        0                       # What write queue length does an incoming req see
system.mem_ctrl.wrQLenPdf::1                        0                       # What write queue length does an incoming req see
system.mem_ctrl.wrQLenPdf::2                        0                       # What write queue length does an incoming req see
system.mem_ctrl.wrQLenPdf::3                        0                       # What write queue length does an incoming req see
system.mem_ctrl.wrQLenPdf::4                        0                       # What write queue length does an incoming req see
system.mem_ctrl.wrQLenPdf::5                        0                       # What write queue length does an incoming req see
system.mem_ctrl.wrQLenPdf::6                        0                       # What write queue length does an incoming req see
system.mem_ctrl.wrQLenPdf::7                        0                       # What write queue length does an incoming req see
system.mem_ctrl.wrQLenPdf::8                        0                       # What write queue length does an incoming req see
system.mem_ctrl.wrQLenPdf::9                        0                       # What write queue length does an incoming req see
system.mem_ctrl.wrQLenPdf::10                       0                       # What write queue length does an incoming req see
system.mem_ctrl.wrQLenPdf::11                       0                       # What write queue length does an incoming req see
system.mem_ctrl.wrQLenPdf::12                       0                       # What write queue length does an incoming req see
system.mem_ctrl.wrQLenPdf::13                       0                       # What write queue length does an incoming req see
system.mem_ctrl.wrQLenPdf::14                       0                       # What write queue length does an incoming req see
system.mem_ctrl.wrQLenPdf::15                       0                       # What write queue length does an incoming req see
system.mem_ctrl.wrQLenPdf::16                       0                       # What write queue length does an incoming req see
system.mem_ctrl.wrQLenPdf::17                       0                       # What write queue length does an incoming req see
system.mem_ctrl.wrQLenPdf::18                       0                       # What write queue length does an incoming req see
system.mem_ctrl.wrQLenPdf::19                       0                       # What write queue length does an incoming req see
system.mem_ctrl.wrQLenPdf::20                       0                       # What write queue length does an incoming req see
system.mem_ctrl.wrQLenPdf::21                       0                       # What write queue length does an incoming req see
system.mem_ctrl.wrQLenPdf::22                       0                       # What write queue length does an incoming req see
system.mem_ctrl.wrQLenPdf::23                       0                       # What write queue length does an incoming req see
system.mem_ctrl.wrQLenPdf::24                       0                       # What write queue length does an incoming req see
system.mem_ctrl.wrQLenPdf::25                       0                       # What write queue length does an incoming req see
system.mem_ctrl.wrQLenPdf::26                       0                       # What write queue length does an incoming req see
system.mem_ctrl.wrQLenPdf::27                       0                       # What write queue length does an incoming req see
system.mem_ctrl.wrQLenPdf::28                       0                       # What write queue length does an incoming req see
system.mem_ctrl.wrQLenPdf::29                       0                       # What write queue length does an incoming req see
system.mem_ctrl.wrQLenPdf::30                       0                       # What write queue length does an incoming req see
system.mem_ctrl.wrQLenPdf::31                       0                       # What write queue length does an incoming req see
system.mem_ctrl.wrQLenPdf::32                       0                       # What write queue length does an incoming req see
system.mem_ctrl.wrQLenPdf::33                       0                       # What write queue length does an incoming req see
system.mem_ctrl.wrQLenPdf::34                       0                       # What write queue length does an incoming req see
system.mem_ctrl.wrQLenPdf::35                       0                       # What write queue length does an incoming req see
system.mem_ctrl.wrQLenPdf::36                       0                       # What write queue length does an incoming req see
system.mem_ctrl.wrQLenPdf::37                       0                       # What write queue length does an incoming req see
system.mem_ctrl.wrQLenPdf::38                       0                       # What write queue length does an incoming req see
system.mem_ctrl.wrQLenPdf::39                       0                       # What write queue length does an incoming req see
system.mem_ctrl.wrQLenPdf::40                       0                       # What write queue length does an incoming req see
system.mem_ctrl.wrQLenPdf::41                       0                       # What write queue length does an incoming req see
system.mem_ctrl.wrQLenPdf::42                       0                       # What write queue length does an incoming req see
system.mem_ctrl.wrQLenPdf::43                       0                       # What write queue length does an incoming req see
system.mem_ctrl.wrQLenPdf::44                       0                       # What write queue length does an incoming req see
system.mem_ctrl.wrQLenPdf::45                       0                       # What write queue length does an incoming req see
system.mem_ctrl.wrQLenPdf::46                       0                       # What write queue length does an incoming req see
system.mem_ctrl.wrQLenPdf::47                       0                       # What write queue length does an incoming req see
system.mem_ctrl.wrQLenPdf::48                       0                       # What write queue length does an incoming req see
system.mem_ctrl.wrQLenPdf::49                       0                       # What write queue length does an incoming req see
system.mem_ctrl.wrQLenPdf::50                       0                       # What write queue length does an incoming req see
system.mem_ctrl.wrQLenPdf::51                       0                       # What write queue length does an incoming req see
system.mem_ctrl.wrQLenPdf::52                       0                       # What write queue length does an incoming req see
system.mem_ctrl.wrQLenPdf::53                       0                       # What write queue length does an incoming req see
system.mem_ctrl.wrQLenPdf::54                       0                       # What write queue length does an incoming req see
system.mem_ctrl.wrQLenPdf::55                       0                       # What write queue length does an incoming req see
system.mem_ctrl.wrQLenPdf::56                       0                       # What write queue length does an incoming req see
system.mem_ctrl.wrQLenPdf::57                       0                       # What write queue length does an incoming req see
system.mem_ctrl.wrQLenPdf::58                       0                       # What write queue length does an incoming req see
system.mem_ctrl.wrQLenPdf::59                       0                       # What write queue length does an incoming req see
system.mem_ctrl.wrQLenPdf::60                       0                       # What write queue length does an incoming req see
system.mem_ctrl.wrQLenPdf::61                       0                       # What write queue length does an incoming req see
system.mem_ctrl.wrQLenPdf::62                       0                       # What write queue length does an incoming req see
system.mem_ctrl.wrQLenPdf::63                       0                       # What write queue length does an incoming req see
system.mem_ctrl.bytesPerActivate::samples          624                       # Bytes accessed per row activation
system.mem_ctrl.bytesPerActivate::mean     293.641026                       # Bytes accessed per row activation
system.mem_ctrl.bytesPerActivate::gmean    182.374621                       # Bytes accessed per row activation
system.mem_ctrl.bytesPerActivate::stdev    302.902767                       # Bytes accessed per row activation
system.mem_ctrl.bytesPerActivate::0-127           204     32.69%     32.69% # Bytes accessed per row activation
system.mem_ctrl.bytesPerActivate::128-255          179     28.69%     61.38% # Bytes accessed per row activation
system.mem_ctrl.bytesPerActivate::256-383           67     10.74%     72.12% # Bytes accessed per row activation
system.mem_ctrl.bytesPerActivate::384-511           44      7.05%     79.17% # Bytes accessed per row activation
system.mem_ctrl.bytesPerActivate::512-639           31      4.97%     84.13% # Bytes accessed per row activation
system.mem_ctrl.bytesPerActivate::640-767           20      3.21%     87.34% # Bytes accessed per row activation
system.mem_ctrl.bytesPerActivate::768-895           15      2.40%     89.74% # Bytes accessed per row activation
system.mem_ctrl.bytesPerActivate::896-1023            9      1.44%     91.19% # Bytes accessed per row activation
system.mem_ctrl.bytesPerActivate::1024-1151           55      8.81%    100.00% # Bytes accessed per row activation
system.mem_ctrl.bytesPerActivate::total           624                       # Bytes accessed per row activation
system.mem_ctrl.bytesReadDRAM                  183232                       # Total number of bytes read from DRAM
system.mem_ctrl.bytesReadWrQ                        0                       # Total number of bytes read from write queue
system.mem_ctrl.bytesWritten                        0                       # Total number of bytes written to DRAM
system.mem_ctrl.bytesReadSys                   183232                       # Total read bytes from the system interface side
system.mem_ctrl.bytesWrittenSys                     0                       # Total written bytes from the system interface side
system.mem_ctrl.avgRdBW                         52.49                       # Average DRAM read bandwidth in MiByte/s
system.mem_ctrl.avgWrBW                          0.00                       # Average achieved write bandwidth in MiByte/s
system.mem_ctrl.avgRdBWSys                      52.49                       # Average system read bandwidth in MiByte/s
system.mem_ctrl.avgWrBWSys                       0.00                       # Average system write bandwidth in MiByte/s
system.mem_ctrl.peakBW                       12800.00                       # Theoretical peak bandwidth in MiByte/s
system.mem_ctrl.busUtil                          0.41                       # Data bus utilization in percentage
system.mem_ctrl.busUtilRead                      0.41                       # Data bus utilization in percentage for reads
system.mem_ctrl.busUtilWrite                     0.00                       # Data bus utilization in percentage for writes
system.mem_ctrl.totGap                     3457847000                       # Total gap between requests
system.mem_ctrl.avgGap                     1207770.52                       # Average gap between requests
system.mem_ctrl.masterReadBytes::.cpu.inst       111360                       # Per-master bytes read from memory
system.mem_ctrl.masterReadBytes::.cpu.data        71872                       # Per-master bytes read from memory
system.mem_ctrl.masterReadRate::.cpu.inst 31900649.643438052386                       # Per-master bytes read from memory rate (Bytes/sec)
system.mem_ctrl.masterReadRate::.cpu.data 20588752.614701684564                       # Per-master bytes read from memory rate (Bytes/sec)
system.mem_ctrl.masterReadAccesses::.cpu.inst         1740                       # Per-master read serviced memory accesses
system.mem_ctrl.masterReadAccesses::.cpu.data         1123                       # Per-master read serviced memory accesses
system.mem_ctrl.masterReadTotalLat::.cpu.inst     44371250                       # Per-master read total memory access latency
system.mem_ctrl.masterReadTotalLat::.cpu.data     29588750                       # Per-master read total memory access latency
system.mem_ctrl.masterReadAvgLat::.cpu.inst     25500.72                       # Per-master read average memory access latency
system.mem_ctrl.masterReadAvgLat::.cpu.data     26347.95                       # Per-master read average memory access latency
system.mem_ctrl.pageHitRate                     78.20                       # Row buffer hit rate, read and write combined
system.mem_ctrl.rank1.actEnergy               1649340                       # Energy for activate commands per rank (pJ)
system.mem_ctrl.rank1.preEnergy                876645                       # Energy for precharge commands per rank (pJ)
system.mem_ctrl.rank1.readEnergy              9232020                       # Energy for read commands per rank (pJ)
system.mem_ctrl.rank1.writeEnergy                   0                       # Energy for write commands per rank (pJ)
system.mem_ctrl.rank1.refreshEnergy      275358720.000000                       # Energy for refresh commands per rank (pJ)
system.mem_ctrl.rank1.actBackEnergy         219711060                       # Energy for active background per rank (pJ)
system.mem_ctrl.rank1.preBackEnergy        1155462240                       # Energy for precharge background per rank (pJ)
system.mem_ctrl.rank1.actPowerDownEnergy            0                       # Energy for active power-down per rank (pJ)
system.mem_ctrl.rank1.prePowerDownEnergy            0                       # Energy for precharge power-down per rank (pJ)
system.mem_ctrl.rank1.selfRefreshEnergy             0                       # Energy for self refresh per rank (pJ)
system.mem_ctrl.rank1.totalEnergy          1662290025                       # Total energy per rank (pJ)
system.mem_ctrl.rank1.averagePower         476.186527                       # Core power per rank (mW)
system.mem_ctrl.rank1.totalIdleTime                 0                       # Total Idle time Per DRAM Rank
system.mem_ctrl.rank1.memoryStateTime::IDLE   3001723000                       # Time in different power states
system.mem_ctrl.rank1.memoryStateTime::REF    116480000                       # Time in different power states
system.mem_ctrl.rank1.memoryStateTime::SREF            0                       # Time in different power states
system.mem_ctrl.rank1.memoryStateTime::PRE_PDN            0                       # Time in different power states
system.mem_ctrl.rank1.memoryStateTime::ACT    372635000                       # Time in different power states
system.mem_ctrl.rank1.memoryStateTime::ACT_PDN            0                       # Time in different power states
system.mem_ctrl.rank0.actEnergy               2806020                       # Energy for activate commands per rank (pJ)
system.mem_ctrl.rank0.preEnergy               1491435                       # Energy for precharge commands per rank (pJ)
system.mem_ctrl.rank0.readEnergy             11209800                       # Energy for read commands per rank (pJ)
system.mem_ctrl.rank0.writeEnergy                   0                       # Energy for write commands per rank (pJ)
system.mem_ctrl.rank0.refreshEnergy      275358720.000000                       # Energy for refresh commands per rank (pJ)
system.mem_ctrl.rank0.actBackEnergy         438758070                       # Energy for active background per rank (pJ)
system.mem_ctrl.rank0.preBackEnergy         971001600                       # Energy for precharge background per rank (pJ)
system.mem_ctrl.rank0.actPowerDownEnergy            0                       # Energy for active power-down per rank (pJ)
system.mem_ctrl.rank0.prePowerDownEnergy            0                       # Energy for precharge power-down per rank (pJ)
system.mem_ctrl.rank0.selfRefreshEnergy             0                       # Energy for self refresh per rank (pJ)
system.mem_ctrl.rank0.totalEnergy          1700625645                       # Total energy per rank (pJ)
system.mem_ctrl.rank0.averagePower         487.168309                       # Core power per rank (mW)
system.mem_ctrl.rank0.totalIdleTime                 0                       # Total Idle time Per DRAM Rank
system.mem_ctrl.rank0.memoryStateTime::IDLE   2519861000                       # Time in different power states
system.mem_ctrl.rank0.memoryStateTime::REF    116480000                       # Time in different power states
system.mem_ctrl.rank0.memoryStateTime::SREF            0                       # Time in different power states
system.mem_ctrl.rank0.memoryStateTime::PRE_PDN            0                       # Time in different power states
system.mem_ctrl.rank0.memoryStateTime::ACT    854497000                       # Time in different power states
system.mem_ctrl.rank0.memoryStateTime::ACT_PDN            0                       # Time in different power states
system.mem_ctrl.power_state.pwrStateResidencyTicks::UNDEFINED   3490838000                       # Cumulative time (in ticks) in various power states
system.cache_medium.blocked_cycles::no_mshrs            0                       # number of cycles access was blocked
system.cache_medium.blocked_cycles::no_targets            0                       # number of cycles access was blocked
system.cache_medium.blocked::no_mshrs               0                       # number of cycles access was blocked
system.cache_medium.blocked::no_targets             0                       # number of cycles access was blocked
system.cache_medium.avg_blocked_cycles::no_mshrs          nan                       # average number of cycles each access was blocked
system.cache_medium.avg_blocked_cycles::no_targets          nan                       # average number of cycles each access was blocked
system.cache_medium.replacements                    0                       # number of replacements
system.cache_medium.power_state.pwrStateResidencyTicks::UNDEFINED   3490838000                       # Cumulative time (in ticks) in various power states
system.cache_medium.tags.tagsinuse                  0                       # Cycle average of tags in use
system.cache_medium.tags.total_refs                 0                       # Total number of references to valid blocks.
system.cache_medium.tags.sampled_refs               0                       # Sample count of references to valid blocks.
system.cache_medium.tags.avg_refs                 nan                       # Average number of references to valid blocks.
system.cache_medium.tags.warmup_cycle               0                       # Cycle when the warmup percentage was hit.
system.cache_medium.tags.tag_accesses               0                       # Number of tag accesses
system.cache_medium.tags.data_accesses              0                       # Number of data accesses
system.cache_medium.tags.power_state.pwrStateResidencyTicks::UNDEFINED   3490838000                       # Cumulative time (in ticks) in various power states
system.clk_domain.clock                          1000                       # Clock period in ticks
system.clk_domain.voltage_domain.voltage            1                       # Voltage in Volts
system.dcache.demand_hits::.cpu.data           297123                       # number of demand (read+write) hits
system.dcache.demand_hits::total               297123                       # number of demand (read+write) hits
system.dcache.overall_hits::.cpu.data          299216                       # number of overall hits
system.dcache.overall_hits::total              299216                       # number of overall hits
system.dcache.demand_misses::.cpu.data           3968                       # number of demand (read+write) misses
system.dcache.demand_misses::total               3968                       # number of demand (read+write) misses
system.dcache.overall_misses::.cpu.data          3978                       # number of overall misses
system.dcache.overall_misses::total              3978                       # number of overall misses
system.dcache.demand_miss_latency::.cpu.data    133862000                       # number of demand (read+write) miss cycles
system.dcache.demand_miss_latency::total    133862000                       # number of demand (read+write) miss cycles
system.dcache.overall_miss_latency::.cpu.data    134436000                       # number of overall miss cycles
system.dcache.overall_miss_latency::total    134436000                       # number of overall miss cycles
system.dcache.demand_accesses::.cpu.data       301091                       # number of demand (read+write) accesses
system.dcache.demand_accesses::total           301091                       # number of demand (read+write) accesses
system.dcache.overall_accesses::.cpu.data       303194                       # number of overall (read+write) accesses
system.dcache.overall_accesses::total          303194                       # number of overall (read+write) accesses
system.dcache.demand_miss_rate::.cpu.data     0.013179                       # miss rate for demand accesses
system.dcache.demand_miss_rate::total        0.013179                       # miss rate for demand accesses
system.dcache.overall_miss_rate::.cpu.data     0.013120                       # miss rate for overall accesses
system.dcache.overall_miss_rate::total       0.013120                       # miss rate for overall accesses
system.dcache.demand_avg_miss_latency::.cpu.data 33735.383065                       # average overall miss latency
system.dcache.demand_avg_miss_latency::total 33735.383065                       # average overall miss latency
system.dcache.overall_avg_miss_latency::.cpu.data 33794.871795                       # average overall miss latency
system.dcache.overall_avg_miss_latency::total 33794.871795                       # average overall miss latency
system.dcache.blocked_cycles::no_mshrs              0                       # number of cycles access was blocked
system.dcache.blocked_cycles::no_targets            0                       # number of cycles access was blocked
system.dcache.blocked::no_mshrs                     0                       # number of cycles access was blocked
system.dcache.blocked::no_targets                   0                       # number of cycles access was blocked
system.dcache.avg_blocked_cycles::no_mshrs          nan                       # average number of cycles each access was blocked
system.dcache.avg_blocked_cycles::no_targets          nan                       # average number of cycles each access was blocked
system.dcache.writebacks::.writebacks            2053                       # number of writebacks
system.dcache.writebacks::total                  2053                       # number of writebacks
system.dcache.demand_mshr_misses::.cpu.data         3968                       # number of demand (read+write) MSHR misses
system.dcache.demand_mshr_misses::total          3968                       # number of demand (read+write) MSHR misses
system.dcache.overall_mshr_misses::.cpu.data         3978                       # number of overall MSHR misses
system.dcache.overall_mshr_misses::total         3978                       # number of overall MSHR misses
system.dcache.demand_mshr_miss_latency::.cpu.data    125928000                       # number of demand (read+write) MSHR miss cycles
system.dcache.demand_mshr_miss_latency::total    125928000                       # number of demand (read+write) MSHR miss cycles
system.dcache.overall_mshr_miss_latency::.cpu.data    126482000                       # number of overall MSHR miss cycles
system.dcache.overall_mshr_miss_latency::total    126482000                       # number of overall MSHR miss cycles
system.dcache.demand_mshr_miss_rate::.cpu.data     0.013179                       # mshr miss rate for demand accesses
system.dcache.demand_mshr_miss_rate::total     0.013179                       # mshr miss rate for demand accesses
system.dcache.overall_mshr_miss_rate::.cpu.data     0.013120                       # mshr miss rate for overall accesses
system.dcache.overall_mshr_miss_rate::total     0.013120                       # mshr miss rate for overall accesses
system.dcache.demand_avg_mshr_miss_latency::.cpu.data 31735.887097                       # average overall mshr miss latency
system.dcache.demand_avg_mshr_miss_latency::total 31735.887097                       # average overall mshr miss latency
system.dcache.overall_avg_mshr_miss_latency::.cpu.data 31795.374560                       # average overall mshr miss latency
system.dcache.overall_avg_mshr_miss_latency::total 31795.374560                       # average overall mshr miss latency
system.dcache.replacements                       3721                       # number of replacements
system.dcache.ReadReq_hits::.cpu.data          198707                       # number of ReadReq hits
system.dcache.ReadReq_hits::total              198707                       # number of ReadReq hits
system.dcache.ReadReq_misses::.cpu.data          2562                       # number of ReadReq misses
system.dcache.ReadReq_misses::total              2562                       # number of ReadReq misses
system.dcache.ReadReq_miss_latency::.cpu.data     56658000                       # number of ReadReq miss cycles
system.dcache.ReadReq_miss_latency::total     56658000                       # number of ReadReq miss cycles
system.dcache.ReadReq_accesses::.cpu.data       201269                       # number of ReadReq accesses(hits+misses)
system.dcache.ReadReq_accesses::total          201269                       # number of ReadReq accesses(hits+misses)
system.dcache.ReadReq_miss_rate::.cpu.data     0.012729                       # miss rate for ReadReq accesses
system.dcache.ReadReq_miss_rate::total       0.012729                       # miss rate for ReadReq accesses
system.dcache.ReadReq_avg_miss_latency::.cpu.data 22114.754098                       # average ReadReq miss latency
system.dcache.ReadReq_avg_miss_latency::total 22114.754098                       # average ReadReq miss latency
system.dcache.ReadReq_mshr_misses::.cpu.data         2562                       # number of ReadReq MSHR misses
system.dcache.ReadReq_mshr_misses::total         2562                       # number of ReadReq MSHR misses
system.dcache.ReadReq_mshr_miss_latency::.cpu.data     51536000                       # number of ReadReq MSHR miss cycles
system.dcache.ReadReq_mshr_miss_latency::total     51536000                       # number of ReadReq MSHR miss cycles
system.dcache.ReadReq_mshr_miss_rate::.cpu.data     0.012729                       # mshr miss rate for ReadReq accesses
system.dcache.ReadReq_mshr_miss_rate::total     0.012729                       # mshr miss rate for ReadReq accesses
system.dcache.ReadReq_avg_mshr_miss_latency::.cpu.data 20115.534738                       # average ReadReq mshr miss latency
system.dcache.ReadReq_avg_mshr_miss_latency::total 20115.534738                       # average ReadReq mshr miss latency
system.dcache.WriteReq_hits::.cpu.data          98416                       # number of WriteReq hits
system.dcache.WriteReq_hits::total              98416                       # number of WriteReq hits
system.dcache.WriteReq_misses::.cpu.data         1406                       # number of WriteReq misses
system.dcache.WriteReq_misses::total             1406                       # number of WriteReq misses
system.dcache.WriteReq_miss_latency::.cpu.data     77204000                       # number of WriteReq miss cycles
system.dcache.WriteReq_miss_latency::total     77204000                       # number of WriteReq miss cycles
[...]
system.dcache.tags.age_task_id_blocks_1024::4          198                       # Occupied blocks per task id
system.dcache.tags.occ_task_id_percent::1024            1                       # Percentage of cache occupancy per task id
system.dcache.tags.tag_accesses               2001958                       # Number of tag accesses
system.dcache.tags.data_accesses              2001958                       # Number of data accesses
system.dcache.tags.power_state.pwrStateResidencyTicks::UNDEFINED  23111552000                       # Cumulative time (in ticks) in various power states
system.cache_large.blocked_cycles::no_mshrs            0                       # number of cycles access was blocked
system.cache_large.blocked_cycles::no_targets            0                       # number of cycles access was blocked
system.cache_large.blocked::no_mshrs                0                       # number of cycles access was blocked
system.cache_large.blocked::no_targets              0                       # number of cycles access was blocked
system.cache_large.avg_blocked_cycles::no_mshrs          nan                       # average number of cycles each access was blocked
system.cache_large.avg_blocked_cycles::no_targets          nan                       # average number of cycles each access was blocked
system.cache_large.replacements                     0                       # number of replacements
system.cache_large.power_state.pwrStateResidencyTicks::UNDEFINED  23111552000                       # Cumulative time (in ticks) in various power states
system.cache_large.tags.tagsinuse                   0                       # Cycle average of tags in use
system.cache_large.tags.total_refs                  0                       # Total number of references to valid blocks.
system.cache_large.tags.sampled_refs                0                       # Sample count of references to valid blocks.
system.cache_large.tags.avg_refs                  nan                       # Average number of references to valid blocks.
system.cache_large.tags.warmup_cycle                0                       # Cycle when the warmup percentage was hit.
system.cache_large.tags.tag_accesses                0                       # Number of tag accesses
system.cache_large.tags.data_accesses               0                       # Number of data accesses
system.cache_large.tags.power_state.pwrStateResidencyTicks::UNDEFINED  23111552000                       # Cumulative time (in ticks) in various power states
system.l2cache.demand_hits::.cpu.inst            2935                       # number of demand (read+write) hits
system.l2cache.demand_hits::.cpu.data           14843                       # number of demand (read+write) hits
system.l2cache.demand_hits::total               17778                       # number of demand (read+write) hits
system.l2cache.overall_hits::.cpu.inst           2935                       # number of overall hits
system.l2cache.overall_hits::.cpu.data          14843                       # number of overall hits
system.l2cache.overall_hits::total              17778                       # number of overall hits
system.l2cache.demand_misses::.cpu.inst         17688                       # number of demand (read+write) misses
system.l2cache.demand_misses::.cpu.data         19023                       # number of demand (read+write) misses
system.l2cache.demand_misses::total             36711                       # number of demand (read+write) misses
system.l2cache.overall_misses::.cpu.inst        17688                       # number of overall misses
system.l2cache.overall_misses::.cpu.data        19023                       # number of overall misses
system.l2cache.overall_misses::total            36711                       # number of overall misses
system.l2cache.demand_miss_latency::.cpu.inst    357365000                       # number of demand (read+write) miss cycles
system.l2cache.demand_miss_latency::.cpu.data    315985000                       # number of demand (read+write) miss cycles
system.l2cache.demand_miss_latency::total    673350000                       # number of demand (read+write) miss cycles
system.l2cache.overall_miss_latency::.cpu.inst    357365000                       # number of overall miss cycles
system.l2cache.overall_miss_latency::.cpu.data    315985000                       # number of overall miss cycles
system.l2cache.overall_miss_latency::total    673350000                       # number of overall miss cycles
system.l2cache.demand_accesses::.cpu.inst        20623                       # number of demand (read+write) accesses
system.l2cache.demand_accesses::.cpu.data        33866                       # number of demand (read+write) accesses
system.l2cache.demand_accesses::total           54489                       # number of demand (read+write) accesses
system.l2cache.overall_accesses::.cpu.inst        20623                       # number of overall (read+write) accesses
system.l2cache.overall_accesses::.cpu.data        33866                       # number of overall (read+write) accesses
system.l2cache.overall_accesses::total          54489                       # number of overall (read+write) accesses
system.l2cache.demand_miss_rate::.cpu.inst     0.857683                       # miss rate for demand accesses
system.l2cache.demand_miss_rate::.cpu.data     0.561714                       # miss rate for demand accesses
system.l2cache.demand_miss_rate::total       0.673732                       # miss rate for demand accesses
system.l2cache.overall_miss_rate::.cpu.inst     0.857683                       # miss rate for overall accesses
system.l2cache.overall_miss_rate::.cpu.data     0.561714                       # miss rate for overall accesses
system.l2cache.overall_miss_rate::total      0.673732                       # miss rate for overall accesses
system.l2cache.demand_avg_miss_latency::.cpu.inst 20203.810493                       # average overall miss latency
system.l2cache.demand_avg_miss_latency::.cpu.data 16610.681806                       # average overall miss latency
system.l2cache.demand_avg_miss_latency::total 18341.913868                       # average overall miss latency
system.l2cache.overall_avg_miss_latency::.cpu.inst 20203.810493                       # average overall miss latency
system.l2cache.overall_avg_miss_latency::.cpu.data 16610.681806                       # average overall miss latency
system.l2cache.overall_avg_miss_latency::total 18341.913868                       # average overall miss latency
system.l2cache.blocked_cycles::no_mshrs             0                       # number of cycles access was blocked
system.l2cache.blocked_cycles::no_targets            0                       # number of cycles access was blocked
system.l2cache.blocked::no_mshrs                    0                       # number of cycles access was blocked
system.l2cache.blocked::no_targets                  0                       # number of cycles access was blocked
system.l2cache.avg_blocked_cycles::no_mshrs          nan                       # average number of cycles each access was blocked
system.l2cache.avg_blocked_cycles::no_targets          nan                       # average number of cycles each access was blocked
system.l2cache.writebacks::.writebacks           8962                       # number of writebacks
system.l2cache.writebacks::total                 8962                       # number of writebacks
system.l2cache.demand_mshr_misses::.cpu.inst        17688                       # number of demand (read+write) MSHR misses
system.l2cache.demand_mshr_misses::.cpu.data        19023                       # number of demand (read+write) MSHR misses
system.l2cache.demand_mshr_misses::total        36711                       # number of demand (read+write) MSHR misses
system.l2cache.overall_mshr_misses::.cpu.inst        17688                       # number of overall MSHR misses
system.l2cache.overall_mshr_misses::.cpu.data        19023                       # number of overall MSHR misses
system.l2cache.overall_mshr_misses::total        36711                       # number of overall MSHR misses
system.l2cache.demand_mshr_miss_latency::.cpu.inst    321989000                       # number of demand (read+write) MSHR miss cycles
system.l2cache.demand_mshr_miss_latency::.cpu.data    277939000                       # number of demand (read+write) MSHR miss cycles
system.l2cache.demand_mshr_miss_latency::total    599928000                       # number of demand (read+write) MSHR miss cycles
system.l2cache.overall_mshr_miss_latency::.cpu.inst    321989000                       # number of overall MSHR miss cycles
system.l2cache.overall_mshr_miss_latency::.cpu.data    277939000                       # number of overall MSHR miss cycles
system.l2cache.overall_mshr_miss_latency::total    599928000                       # number of overall MSHR miss cycles
system.l2cache.demand_mshr_miss_rate::.cpu.inst     0.857683                       # mshr miss rate for demand accesses
system.l2cache.demand_mshr_miss_rate::.cpu.data     0.561714                       # mshr miss rate for demand accesses
system.l2cache.demand_mshr_miss_rate::total     0.673732                       # mshr miss rate for demand accesses
system.l2cache.overall_mshr_miss_rate::.cpu.inst     0.857683                       # mshr miss rate for overall accesses
system.l2cache.overall_mshr_miss_rate::.cpu.data     0.561714                       # mshr miss rate for overall accesses
system.l2cache.overall_mshr_miss_rate::total     0.673732                       # mshr miss rate for overall accesses
system.l2cache.demand_avg_mshr_miss_latency::.cpu.inst 18203.810493                       # average overall mshr miss latency
system.l2cache.demand_avg_mshr_miss_latency::.cpu.data 14610.681806                       # average overall mshr miss latency
system.l2cache.demand_avg_mshr_miss_latency::total 16341.913868                       # average overall mshr miss latency
system.l2cache.overall_avg_mshr_miss_latency::.cpu.inst 18203.810493                       # average overall mshr miss latency
system.l2cache.overall_avg_mshr_miss_latency::.cpu.data 14610.681806                       # average overall mshr miss latency
system.l2cache.overall_avg_mshr_miss_latency::total 16341.913868                       # average overall mshr miss latency
system.l2cache.replacements                     44939                       # number of replacements
system.l2cache.ReadReq_hits::.cpu.inst           2935                       # number of ReadReq hits
system.l2cache.ReadReq_hits::.cpu.data          14843                       # number of ReadReq hits
system.l2cache.ReadReq_hits::total              17778                       # number of ReadReq hits
system.l2cache.ReadReq_misses::.cpu.inst        17688                       # number of ReadReq misses
system.l2cache.ReadReq_misses::.cpu.data        19023                       # number of ReadReq misses
system.l2cache.ReadReq_misses::total            36711                       # number of ReadReq misses
system.l2cache.ReadReq_miss_latency::.cpu.inst    357365000                       # number of ReadReq miss cycles
system.l2cache.ReadReq_miss_latency::.cpu.data    315985000                       # number of ReadReq miss cycles
system.l2cache.ReadReq_miss_latency::total    673350000                       # number of ReadReq miss cycles
system.l2cache.ReadReq_accesses::.cpu.inst        20623                       # number of ReadReq accesses(hits+misses)
system.l2cache.ReadReq_accesses::.cpu.data        33866                       # number of ReadReq accesses(hits+misses)
system.l2cache.ReadReq_accesses::total          54489                       # number of ReadReq accesses(hits+misses)
system.l2cache.ReadReq_miss_rate::.cpu.inst     0.857683                       # miss rate for ReadReq accesses
system.l2cache.ReadReq_miss_rate::.cpu.data     0.561714                       # miss rate for ReadReq accesses
system.l2cache.ReadReq_miss_rate::total      0.673732                       # miss rate for ReadReq accesses
system.l2cache.ReadReq_avg_miss_latency::.cpu.inst 20203.810493                       # average ReadReq miss latency
system.l2cache.ReadReq_avg_miss_latency::.cpu.data 16610.681806                       # average ReadReq miss latency
system.l2cache.ReadReq_avg_miss_latency::total 18341.913868                       # average ReadReq miss latency
system.l2cache.ReadReq_mshr_misses::.cpu.inst        17688                       # number of ReadReq MSHR misses
system.l2cache.ReadReq_mshr_misses::.cpu.data        19023                       # number of ReadReq MSHR misses
system.l2cache.ReadReq_mshr_misses::total        36711                       # number of ReadReq MSHR misses
system.l2cache.ReadReq_mshr_miss_latency::.cpu.inst    321989000                       # number of ReadReq MSHR miss cycles
system.l2cache.ReadReq_mshr_miss_latency::.cpu.data    277939000                       # number of ReadReq MSHR miss cycles
system.l2cache.ReadReq_mshr_miss_latency::total    599928000                       # number of ReadReq MSHR miss cycles
system.l2cache.ReadReq_mshr_miss_rate::.cpu.inst     0.857683                       # mshr miss rate for ReadReq accesses
system.l2cache.ReadReq_mshr_miss_rate::.cpu.data     0.561714                       # mshr miss rate for ReadReq accesses
system.l2cache.ReadReq_mshr_miss_rate::total     0.673732                       # mshr miss rate for ReadReq accesses
system.l2cache.ReadReq_avg_mshr_miss_latency::.cpu.inst 18203.810493                       # average ReadReq mshr miss latency
system.l2cache.ReadReq_avg_mshr_miss_latency::.cpu.data 14610.681806                       # average ReadReq mshr miss latency
system.l2cache.ReadReq_avg_mshr_miss_latency::total 16341.913868                       # average ReadReq mshr miss latency
system.l2cache.WritebackDirty_hits::.writebacks        15019                       # number of WritebackDirty hits
system.l2cache.WritebackDirty_hits::total        15019                       # number of WritebackDirty hits
system.l2cache.WritebackDirty_accesses::.writebacks        15019                       # number of WritebackDirty accesses(hits+misses)
system.l2cache.WritebackDirty_accesses::total        15019                       # number of WritebackDirty accesses(hits+misses)
system.l2cache.power_state.pwrStateResidencyTicks::UNDEFINED  23111552000                       # Cumulative time (in ticks) in various power states
system.l2cache.tags.tagsinuse              510.168475                       # Cycle average of tags in use
system.l2cache.tags.total_refs                  69508                       # Total number of references to valid blocks.
system.l2cache.tags.sampled_refs                45451                       # Sample count of references to valid blocks.
system.l2cache.tags.avg_refs                 1.529295                       # Average number of references to valid blocks.
system.l2cache.tags.warmup_cycle                78000                       # Cycle when the warmup percentage was hit.
system.l2cache.tags.occ_blocks::.writebacks    21.888034                       # Average occupied blocks per requestor
system.l2cache.tags.occ_blocks::.cpu.inst   468.794057                       # Average occupied blocks per requestor
system.l2cache.tags.occ_blocks::.cpu.data    19.486384                       # Average occupied blocks per requestor
system.l2cache.tags.occ_percent::.writebacks     0.042750                       # Average percentage of cache occupancy
system.l2cache.tags.occ_percent::.cpu.inst     0.915613                       # Average percentage of cache occupancy
system.l2cache.tags.occ_percent::.cpu.data     0.038059                       # Average percentage of cache occupancy
system.l2cache.tags.occ_percent::total       0.996423                       # Average percentage of cache occupancy
system.l2cache.tags.occ_task_id_blocks::1024          512                       # Occupied blocks per task id
system.l2cache.tags.age_task_id_blocks_1024::0            8                       # Occupied blocks per task id
system.l2cache.tags.age_task_id_blocks_1024::1           31                       # Occupied blocks per task id
system.l2cache.tags.age_task_id_blocks_1024::2            9                       # Occupied blocks per task id
system.l2cache.tags.age_task_id_blocks_1024::3          422                       # Occupied blocks per task id
system.l2cache.tags.age_task_id_blocks_1024::4           42                       # Occupied blocks per task id
system.l2cache.tags.occ_task_id_percent::1024            1                       # Percentage of cache occupancy per task id
system.l2cache.tags.tag_accesses               114959                       # Number of tag accesses
system.l2cache.tags.data_accesses              114959                       # Number of data accesses
system.l2cache.tags.power_state.pwrStateResidencyTicks::UNDEFINED  23111552000                       # Cumulative time (in ticks) in various power states
system.l2bar.trans_dist::ReadReq                54489                       # Transaction distribution
system.l2bar.trans_dist::ReadResp               54489                       # Transaction distribution
system.l2bar.trans_dist::WritebackDirty         15019                       # Transaction distribution
system.l2bar.pkt_count_system.dcache.mem_side::system.l2cache.cpu_side        82751                       # Packet count per connected master and slave (bytes)
system.l2bar.pkt_count_system.icache.mem_side::system.l2cache.cpu_side        41246                       # Packet count per connected master and slave (bytes)
system.l2bar.pkt_count::total                  123997                       # Packet count per connected master and slave (bytes)
system.l2bar.pkt_size_system.dcache.mem_side::system.l2cache.cpu_side      3128640                       # Cumulative packet size per connected master and slave (bytes)
system.l2bar.pkt_size_system.icache.mem_side::system.l2cache.cpu_side      1319872                       # Cumulative packet size per connected master and slave (bytes)
system.l2bar.pkt_size::total                  4448512                       # Cumulative packet size per connected master and slave (bytes)
system.l2bar.respLayer1.occupancy           103115000                       # Layer occupancy (ticks)
system.l2bar.respLayer1.utilization               0.4                       # Layer utilization (%)
system.l2bar.reqLayer0.occupancy            129584000                       # Layer occupancy (ticks)
system.l2bar.reqLayer0.utilization                0.6                       # Layer utilization (%)
system.l2bar.respLayer0.occupancy           169330000                       # Layer occupancy (ticks)
system.l2bar.respLayer0.utilization               0.7                       # Layer utilization (%)
system.l2bar.power_state.pwrStateResidencyTicks::UNDEFINED  23111552000                       # Cumulative time (in ticks) in various power states
system.cpu.dtb.walker.power_state.pwrStateResidencyTicks::UNDEFINED  23111552000                       # Cumulative time (in ticks) in various power states
system.cpu.interrupts.clk_domain.clock          16000                       # Clock period in ticks
system.cpu.itb.walker.power_state.pwrStateResidencyTicks::UNDEFINED  23111552000                       # Cumulative time (in ticks) in various power states
system.cpu.power_state.numTransitions               1                       # Number of power state transitions
system.cpu.power_state.pwrStateResidencyTicks::ON  23111552000                       # Cumulative time (in ticks) in various power states

---------- End Simulation Statistics   ----------
