
---------- Begin Simulation Statistics ----------
final_tick                                 4048319000                       # Number of ticks from beginning of simulation (restored from checkpoints and never reset)
host_inst_rate                                 101745                       # Simulator instruction rate (inst/s)
host_mem_usage                               34274224                       # Number of bytes of host memory used
host_op_rate                                   209640                       # Simulator op (including micro ops) rate (op/s)
host_seconds                                     9.83                       # Real time elapsed on the host
host_tick_rate                              411823200                       # Simulator tick rate (ticks/s)
sim_freq                                 1000000000000                       # Frequency of simulated ticks
sim_insts                                     1000144                       # Number of instructions simulated
sim_ops                                       2060798                       # Number of ops (including micro ops) simulated
sim_seconds                                  0.004048                       # Number of seconds simulated
sim_ticks                                  4048319000                       # Number of ticks simulated
system.cpu.Branches                            239608                       # Number of branches fetched
system.cpu.committedInsts                     1000144                       # Number of instructions committed
system.cpu.committedOps                       2060798                       # Number of ops (including micro ops) committed
system.cpu.dtb.rdAccesses                      201717                       # TLB accesses on read requests
system.cpu.dtb.rdMisses                            74                       # TLB misses on read requests
system.cpu.dtb.wrAccesses                      139460                       # TLB accesses on write requests
system.cpu.dtb.wrMisses                            63                       # TLB misses on write requests
system.cpu.idle_fraction                            0                       # Percentage of idle cycles
system.cpu.itb.rdAccesses                           0                       # TLB accesses on read requests
system.cpu.itb.rdMisses                             0                       # TLB misses on read requests
system.cpu.itb.wrAccesses                     1319788                       # TLB accesses on write requests
system.cpu.itb.wrMisses                           164                       # TLB misses on write requests
system.cpu.not_idle_fraction                        1                       # Percentage of non-idle cycles
system.cpu.numCycles                          4048308                       # number of cpu cycles simulated
system.cpu.numWorkItemsCompleted                    0                       # number of work items this cpu completed
system.cpu.numWorkItemsStarted                      0                       # number of work items this cpu started
system.cpu.num_busy_cycles                    4048308                       # Number of busy cycles
system.cpu.num_cc_register_reads              1493491                       # number of times the CC registers were read
system.cpu.num_cc_register_writes              634761                       # number of times the CC registers were written
system.cpu.num_conditional_control_insts       176830                       # number of instructions that are conditional controls
system.cpu.num_fp_alu_accesses                  81369                       # Number of float alu accesses
system.cpu.num_fp_insts                         81369                       # number of float instructions
system.cpu.num_fp_register_reads               136512                       # number of times the floating registers were read
system.cpu.num_fp_register_writes               69029                       # number of times the floating registers were written
system.cpu.num_func_calls                       43018                       # number of times a function call or return occured
system.cpu.num_idle_cycles                          0                       # Number of idle cycles
system.cpu.num_int_alu_accesses               1990365                       # Number of integer alu accesses
system.cpu.num_int_insts                      1990365                       # number of integer instructions
system.cpu.num_int_register_reads             3845448                       # number of times the integer registers were read
system.cpu.num_int_register_writes            1603860                       # number of times the integer registers were written
system.cpu.num_load_insts                      201364                       # Number of load instructions
system.cpu.num_mem_refs                        340733                       # number of memory refs
system.cpu.num_store_insts                     139369                       # Number of store instructions
system.cpu.num_vec_alu_accesses                     0                       # Number of vector alu accesses
system.cpu.num_vec_insts                            0                       # number of vector instructions
system.cpu.num_vec_register_reads                   0                       # number of times the vector registers were read
system.cpu.num_vec_register_writes                  0                       # number of times the vector registers were written
system.cpu.op_class::No_OpClass                 14340      0.70%      0.70% # Class of executed instruction
system.cpu.op_class::IntAlu                   1643714     79.76%     80.46% # Class of executed instruction
system.cpu.op_class::IntMult                       20      0.00%     80.46% # Class of executed instruction
system.cpu.op_class::IntDiv                        42      0.00%     80.46% # Class of executed instruction
system.cpu.op_class::FloatAdd                    2029      0.10%     80.56% # Class of executed instruction
system.cpu.op_class::FloatCmp                       0      0.00%     80.56% # Class of executed instruction
system.cpu.op_class::FloatCvt                       0      0.00%     80.56% # Class of executed instruction
system.cpu.op_class::FloatMult                      0      0.00%     80.56% # Class of executed instruction
system.cpu.op_class::FloatMultAcc                   0      0.00%     80.56% # Class of executed instruction
system.cpu.op_class::FloatDiv                       0      0.00%     80.56% # Class of executed instruction
system.cpu.op_class::FloatMisc                      0      0.00%     80.56% # Class of executed instruction
system.cpu.op_class::FloatSqrt                      0      0.00%     80.56% # Class of executed instruction
system.cpu.op_class::SimdAdd                       20      0.00%     80.56% # Class of executed instruction
system.cpu.op_class::SimdAddAcc                     0      0.00%     80.56% # Class of executed instruction
system.cpu.op_class::SimdAlu                    20498      0.99%     81.55% # Class of executed instruction
system.cpu.op_class::SimdCmp                      466      0.02%     81.58% # Class of executed instruction
system.cpu.op_class::SimdCvt                    14386      0.70%     82.27% # Class of executed instruction
system.cpu.op_class::SimdMisc                   24550      1.19%     83.46% # Class of executed instruction
system.cpu.op_class::SimdMult                       0      0.00%     83.46% # Class of executed instruction
system.cpu.op_class::SimdMultAcc                    0      0.00%     83.46% # Class of executed instruction
system.cpu.op_class::SimdShift                      0      0.00%     83.46% # Class of executed instruction
system.cpu.op_class::SimdShiftAcc                   0      0.00%     83.46% # Class of executed instruction
system.cpu.op_class::SimdDiv                        0      0.00%     83.46% # Class of executed instruction
system.cpu.op_class::SimdSqrt                       0      0.00%     83.46% # Class of executed instruction
system.cpu.op_class::SimdFloatAdd                   0      0.00%     83.46% # Class of executed instruction
system.cpu.op_class::SimdFloatAlu                   0      0.00%     83.46% # Class of executed instruction
system.cpu.op_class::SimdFloatCmp                   0      0.00%     83.46% # Class of executed instruction
system.cpu.op_class::SimdFloatCvt                   0      0.00%     83.46% # Class of executed instruction
system.cpu.op_class::SimdFloatDiv                  25      0.00%     83.47% # Class of executed instruction
system.cpu.op_class::SimdFloatMisc                  0      0.00%     83.47% # Class of executed instruction
system.cpu.op_class::SimdFloatMult                  0      0.00%     83.47% # Class of executed instruction
system.cpu.op_class::SimdFloatMultAcc               0      0.00%     83.47% # Class of executed instruction
system.cpu.op_class::SimdFloatSqrt                  0      0.00%     83.47% # Class of executed instruction
system.cpu.op_class::SimdReduceAdd                  0      0.00%     83.47% # Class of executed instruction
system.cpu.op_class::SimdReduceAlu                  0      0.00%     83.47% # Class of executed instruction
system.cpu.op_class::SimdReduceCmp                  0      0.00%     83.47% # Class of executed instruction
system.cpu.op_class::SimdFloatReduceAdd             0      0.00%     83.47% # Class of executed instruction
system.cpu.op_class::SimdFloatReduceCmp             0      0.00%     83.47% # Class of executed instruction
system.cpu.op_class::SimdAes                        0      0.00%     83.47% # Class of executed instruction
system.cpu.op_class::SimdAesMix                     0      0.00%     83.47% # Class of executed instruction
system.cpu.op_class::SimdSha1Hash                   0      0.00%     83.47% # Class of executed instruction
system.cpu.op_class::SimdSha1Hash2                  0      0.00%     83.47% # Class of executed instruction
system.cpu.op_class::SimdSha256Hash                 0      0.00%     83.47% # Class of executed instruction
system.cpu.op_class::SimdSha256Hash2                0      0.00%     83.47% # Class of executed instruction
system.cpu.op_class::SimdShaSigma2                  0      0.00%     83.47% # Class of executed instruction
system.cpu.op_class::SimdShaSigma3                  0      0.00%     83.47% # Class of executed instruction
system.cpu.op_class::SimdPredAlu                    0      0.00%     83.47% # Class of executed instruction
system.cpu.op_class::MemRead                   190016      9.22%     92.69% # Class of executed instruction
system.cpu.op_class::MemWrite                  137376      6.67%     99.35% # Class of executed instruction
system.cpu.op_class::FloatMemRead               11348      0.55%     99.90% # Class of executed instruction
system.cpu.op_class::FloatMemWrite               1993      0.10%    100.00% # Class of executed instruction
system.cpu.op_class::IprAccess                      0      0.00%    100.00% # Class of executed instruction
system.cpu.op_class::InstPrefetch                   0      0.00%    100.00% # Class of executed instruction
system.cpu.op_class::total                    2060823                       # Class of executed instruction
system.cpu.workload.numSyscalls                    13                       # Number of system calls
system.dynamic_cache.flushTicks                     0                       # Ticks taken to flush
system.dynamic_cache.numFlushes                     0                       # Number of Flushes Taken
system.cache_small.demand_hits::.cpu.inst        12823                       # number of demand (read+write) hits
system.cache_small.demand_hits::.cpu.data         1695                       # number of demand (read+write) hits
system.cache_small.demand_hits::total           14518                       # number of demand (read+write) hits
system.cache_small.overall_hits::.cpu.inst        12823                       # number of overall hits
system.cache_small.overall_hits::.cpu.data         1695                       # number of overall hits
system.cache_small.overall_hits::total          14518                       # number of overall hits
system.cache_small.demand_misses::.cpu.inst         1913                       # number of demand (read+write) misses
system.cache_small.demand_misses::.cpu.data         2224                       # number of demand (read+write) misses
system.cache_small.demand_misses::total          4137                       # number of demand (read+write) misses
system.cache_small.overall_misses::.cpu.inst         1913                       # number of overall misses
system.cache_small.overall_misses::.cpu.data         2224                       # number of overall misses
system.cache_small.overall_misses::total         4137                       # number of overall misses
system.cache_small.demand_miss_latency::.cpu.inst    115991000                       # number of demand (read+write) miss cycles
system.cache_small.demand_miss_latency::.cpu.data    138811000                       # number of demand (read+write) miss cycles
system.cache_small.demand_miss_latency::total    254802000                       # number of demand (read+write) miss cycles
system.cache_small.overall_miss_latency::.cpu.inst    115991000                       # number of overall miss cycles
system.cache_small.overall_miss_latency::.cpu.data    138811000                       # number of overall miss cycles
system.cache_small.overall_miss_latency::total    254802000                       # number of overall miss cycles
system.cache_small.demand_accesses::.cpu.inst        14736                       # number of demand (read+write) accesses
system.cache_small.demand_accesses::.cpu.data         3919                       # number of demand (read+write) accesses
system.cache_small.demand_accesses::total        18655                       # number of demand (read+write) accesses
system.cache_small.overall_accesses::.cpu.inst        14736                       # number of overall (read+write) accesses
system.cache_small.overall_accesses::.cpu.data         3919                       # number of overall (read+write) accesses
system.cache_small.overall_accesses::total        18655                       # number of overall (read+write) accesses
system.cache_small.demand_miss_rate::.cpu.inst     0.129818                       # miss rate for demand accesses
system.cache_small.demand_miss_rate::.cpu.data     0.567492                       # miss rate for demand accesses
system.cache_small.demand_miss_rate::total     0.221764                       # miss rate for demand accesses
system.cache_small.overall_miss_rate::.cpu.inst     0.129818                       # miss rate for overall accesses
system.cache_small.overall_miss_rate::.cpu.data     0.567492                       # miss rate for overall accesses
system.cache_small.overall_miss_rate::total     0.221764                       # miss rate for overall accesses
system.cache_small.demand_avg_miss_latency::.cpu.inst 60633.037114                       # average overall miss latency
system.cache_small.demand_avg_miss_latency::.cpu.data 62415.017986                       # average overall miss latency
system.cache_small.demand_avg_miss_latency::total 61591.007977                       # average overall miss latency
system.cache_small.overall_avg_miss_latency::.cpu.inst 60633.037114                       # average overall miss latency
system.cache_small.overall_avg_miss_latency::.cpu.data 62415.017986                       # average overall miss latency
system.cache_small.overall_avg_miss_latency::total 61591.007977                       # average overall miss latency
system.cache_small.blocked_cycles::no_mshrs            0                       # number of cycles access was blocked
system.cache_small.blocked_cycles::no_targets            0                       # number of cycles access was blocked
system.cache_small.blocked::no_mshrs                0                       # number of cycles access was blocked
system.cache_small.blocked::no_targets              0                       # number of cycles access was blocked
system.cache_small.avg_blocked_cycles::no_mshrs          nan                       # average number of cycles each access was blocked
system.cache_small.avg_blocked_cycles::no_targets          nan                       # average number of cycles each access was blocked
system.cache_small.writebacks::.writebacks           73                       # number of writebacks
system.cache_small.writebacks::total               73                       # number of writebacks
system.cache_small.demand_mshr_misses::.cpu.inst         1913                       # number of demand (read+write) MSHR misses
system.cache_small.demand_mshr_misses::.cpu.data         2224                       # number of demand (read+write) MSHR misses
system.cache_small.demand_mshr_misses::total         4137                       # number of demand (read+write) MSHR misses
system.cache_small.overall_mshr_misses::.cpu.inst         1913                       # number of overall MSHR misses
system.cache_small.overall_mshr_misses::.cpu.data         2224                       # number of overall MSHR misses
system.cache_small.overall_mshr_misses::total         4137                       # number of overall MSHR misses
system.cache_small.demand_mshr_miss_latency::.cpu.inst    112165000                       # number of demand (read+write) MSHR miss cycles
system.cache_small.demand_mshr_miss_latency::.cpu.data    134363000                       # number of demand (read+write) MSHR miss cycles
system.cache_small.demand_mshr_miss_latency::total    246528000                       # number of demand (read+write) MSHR miss cycles
system.cache_small.overall_mshr_miss_latency::.cpu.inst    112165000                       # number of overall MSHR miss cycles
system.cache_small.overall_mshr_miss_latency::.cpu.data    134363000                       # number of overall MSHR miss cycles
system.cache_small.overall_mshr_miss_latency::total    246528000                       # number of overall MSHR miss cycles
system.cache_small.demand_mshr_miss_rate::.cpu.inst     0.129818                       # mshr miss rate for demand accesses
system.cache_small.demand_mshr_miss_rate::.cpu.data     0.567492                       # mshr miss rate for demand accesses
system.cache_small.demand_mshr_miss_rate::total     0.221764                       # mshr miss rate for demand accesses
system.cache_small.overall_mshr_miss_rate::.cpu.inst     0.129818                       # mshr miss rate for overall accesses
system.cache_small.overall_mshr_miss_rate::.cpu.data     0.567492                       # mshr miss rate for overall accesses
system.cache_small.overall_mshr_miss_rate::total     0.221764                       # mshr miss rate for overall accesses
system.cache_small.demand_avg_mshr_miss_latency::.cpu.inst 58633.037114                       # average overall mshr miss latency
system.cache_small.demand_avg_mshr_miss_latency::.cpu.data 60415.017986                       # average overall mshr miss latency
system.cache_small.demand_avg_mshr_miss_latency::total 59591.007977                       # average overall mshr miss latency
system.cache_small.overall_avg_mshr_miss_latency::.cpu.inst 58633.037114                       # average overall mshr miss latency
system.cache_small.overall_avg_mshr_miss_latency::.cpu.data 60415.017986                       # average overall mshr miss latency
system.cache_small.overall_avg_mshr_miss_latency::total 59591.007977                       # average overall mshr miss latency
system.cache_small.replacements                   612                       # number of replacements
system.cache_small.ReadReq_hits::.cpu.inst        12823                       # number of ReadReq hits
system.cache_small.ReadReq_hits::.cpu.data         1695                       # number of ReadReq hits
system.cache_small.ReadReq_hits::total          14518                       # number of ReadReq hits
system.cache_small.ReadReq_misses::.cpu.inst         1913                       # number of ReadReq misses
system.cache_small.ReadReq_misses::.cpu.data         2224                       # number of ReadReq misses
system.cache_small.ReadReq_misses::total         4137                       # number of ReadReq misses
system.cache_small.ReadReq_miss_latency::.cpu.inst    115991000                       # number of ReadReq miss cycles
system.cache_small.ReadReq_miss_latency::.cpu.data    138811000                       # number of ReadReq miss cycles
system.cache_small.ReadReq_miss_latency::total    254802000                       # number of ReadReq miss cycles
system.cache_small.ReadReq_accesses::.cpu.inst        14736                       # number of ReadReq accesses(hits+misses)
system.cache_small.ReadReq_accesses::.cpu.data         3919                       # number of ReadReq accesses(hits+misses)
system.cache_small.ReadReq_accesses::total        18655                       # number of ReadReq accesses(hits+misses)
system.cache_small.ReadReq_miss_rate::.cpu.inst     0.129818                       # miss rate for ReadReq accesses
system.cache_small.ReadReq_miss_rate::.cpu.data     0.567492                       # miss rate for ReadReq accesses
system.cache_small.ReadReq_miss_rate::total     0.221764                       # miss rate for ReadReq accesses
system.cache_small.ReadReq_avg_miss_latency::.cpu.inst 60633.037114                       # average ReadReq miss latency
system.cache_small.ReadReq_avg_miss_latency::.cpu.data 62415.017986                       # average ReadReq miss latency
system.cache_small.ReadReq_avg_miss_latency::total 61591.007977                       # average ReadReq miss latency
system.cache_small.ReadReq_mshr_misses::.cpu.inst         1913                       # number of ReadReq MSHR misses
system.cache_small.ReadReq_mshr_misses::.cpu.data         2224                       # number of ReadReq MSHR misses
system.cache_small.ReadReq_mshr_misses::total         4137                       # number of ReadReq MSHR misses
system.cache_small.ReadReq_mshr_miss_latency::.cpu.inst    112165000                       # number of ReadReq MSHR miss cycles
system.cache_small.ReadReq_mshr_miss_latency::.cpu.data    134363000                       # number of ReadReq MSHR miss cycles
system.cache_small.ReadReq_mshr_miss_latency::total    246528000                       # number of ReadReq MSHR miss cycles
system.cache_small.ReadReq_mshr_miss_rate::.cpu.inst     0.129818                       # mshr miss rate for ReadReq accesses
system.cache_small.ReadReq_mshr_miss_rate::.cpu.data     0.567492                       # mshr miss rate for ReadReq accesses
system.cache_small.ReadReq_mshr_miss_rate::total     0.221764                       # mshr miss rate for ReadReq accesses
system.cache_small.ReadReq_avg_mshr_miss_latency::.cpu.inst 58633.037114                       # average ReadReq mshr miss latency
system.cache_small.ReadReq_avg_mshr_miss_latency::.cpu.data 60415.017986                       # average ReadReq mshr miss latency
system.cache_small.ReadReq_avg_mshr_miss_latency::total 59591.007977                       # average ReadReq mshr miss latency
system.cache_small.WritebackDirty_hits::.writebacks         2891                       # number of WritebackDirty hits
system.cache_small.WritebackDirty_hits::total         2891                       # number of WritebackDirty hits
system.cache_small.WritebackDirty_accesses::.writebacks         2891                       # number of WritebackDirty accesses(hits+misses)
system.cache_small.WritebackDirty_accesses::total         2891                       # number of WritebackDirty accesses(hits+misses)
system.cache_small.power_state.pwrStateResidencyTicks::UNDEFINED   4048319000                       # Cumulative time (in ticks) in various power states
system.cache_small.tags.tagsinuse         2839.322682                       # Cycle average of tags in use
system.cache_small.tags.total_refs               1218                       # Total number of references to valid blocks.
system.cache_small.tags.sampled_refs              612                       # Sample count of references to valid blocks.
system.cache_small.tags.avg_refs             1.990196                       # Average number of references to valid blocks.
system.cache_small.tags.warmup_cycle            76000                       # Cycle when the warmup percentage was hit.
system.cache_small.tags.occ_blocks::.writebacks     4.390262                       # Average occupied blocks per requestor
system.cache_small.tags.occ_blocks::.cpu.inst  1323.690008                       # Average occupied blocks per requestor
system.cache_small.tags.occ_blocks::.cpu.data  1511.242411                       # Average occupied blocks per requestor
system.cache_small.tags.occ_percent::.writebacks     0.000268                       # Average percentage of cache occupancy
system.cache_small.tags.occ_percent::.cpu.inst     0.080792                       # Average percentage of cache occupancy
system.cache_small.tags.occ_percent::.cpu.data     0.092239                       # Average percentage of cache occupancy
system.cache_small.tags.occ_percent::total     0.173299                       # Average percentage of cache occupancy
system.cache_small.tags.occ_task_id_blocks::1024         3540                       # Occupied blocks per task id
system.cache_small.tags.age_task_id_blocks_1024::0           13                       # Occupied blocks per task id
system.cache_small.tags.age_task_id_blocks_1024::1           28                       # Occupied blocks per task id
system.cache_small.tags.age_task_id_blocks_1024::2          190                       # Occupied blocks per task id
system.cache_small.tags.age_task_id_blocks_1024::3         3309                       # Occupied blocks per task id
system.cache_small.tags.occ_task_id_percent::1024     0.216064                       # Percentage of cache occupancy per task id
system.cache_small.tags.tag_accesses            25698                       # Number of tag accesses
system.cache_small.tags.data_accesses           25698                       # Number of data accesses
system.cache_small.tags.power_state.pwrStateResidencyTicks::UNDEFINED   4048319000                       # Cumulative time (in ticks) in various power states
system.icache.demand_hits::.cpu.inst          1298896                       # number of demand (read+write) hits
system.icache.demand_hits::total              1298896                       # number of demand (read+write) hits
system.icache.overall_hits::.cpu.inst         1298896                       # number of overall hits
system.icache.overall_hits::total             1298896                       # number of overall hits
system.icache.demand_misses::.cpu.inst          20892                       # number of demand (read+write) misses
system.icache.demand_misses::total              20892                       # number of demand (read+write) misses
system.icache.overall_misses::.cpu.inst         20892                       # number of overall misses
system.icache.overall_misses::total             20892                       # number of overall misses
system.icache.demand_miss_latency::.cpu.inst    484754000                       # number of demand (read+write) miss cycles
system.icache.demand_miss_latency::total    484754000                       # number of demand (read+write) miss cycles
system.icache.overall_miss_latency::.cpu.inst    484754000                       # number of overall miss cycles
system.icache.overall_miss_latency::total    484754000                       # number of overall miss cycles
system.icache.demand_accesses::.cpu.inst      1319788                       # number of demand (read+write) accesses
system.icache.demand_accesses::total          1319788                       # number of demand (read+write) accesses
system.icache.overall_accesses::.cpu.inst      1319788                       # number of overall (read+write) accesses
system.icache.overall_accesses::total         1319788                       # number of overall (read+write) accesses
system.icache.demand_miss_rate::.cpu.inst     0.015830                       # miss rate for demand accesses
system.icache.demand_miss_rate::total        0.015830                       # miss rate for demand accesses
system.icache.overall_miss_rate::.cpu.inst     0.015830                       # miss rate for overall accesses
system.icache.overall_miss_rate::total       0.015830                       # miss rate for overall accesses
system.icache.demand_avg_miss_latency::.cpu.inst 23202.852767                       # average overall miss latency
system.icache.demand_avg_miss_latency::total 23202.852767                       # average overall miss latency
system.icache.overall_avg_miss_latency::.cpu.inst 23202.852767                       # average overall miss latency
system.icache.overall_avg_miss_latency::total 23202.852767                       # average overall miss latency
system.icache.blocked_cycles::no_mshrs              0                       # number of cycles access was blocked
system.icache.blocked_cycles::no_targets            0                       # number of cycles access was blocked
system.icache.blocked::no_mshrs                     0                       # number of cycles access was blocked
system.icache.blocked::no_targets                   0                       # number of cycles access was blocked
system.icache.avg_blocked_cycles::no_mshrs          nan                       # average number of cycles each access was blocked
system.icache.avg_blocked_cycles::no_targets          nan                       # average number of cycles each access was blocked
system.icache.demand_mshr_misses::.cpu.inst        20892                       # number of demand (read+write) MSHR misses
system.icache.demand_mshr_misses::total         20892                       # number of demand (read+write) MSHR misses
system.icache.overall_mshr_misses::.cpu.inst        20892                       # number of overall MSHR misses
system.icache.overall_mshr_misses::total        20892                       # number of overall MSHR misses
system.icache.demand_mshr_miss_latency::.cpu.inst    442972000                       # number of demand (read+write) MSHR miss cycles
system.icache.demand_mshr_miss_latency::total    442972000                       # number of demand (read+write) MSHR miss cycles
system.icache.overall_mshr_miss_latency::.cpu.inst    442972000                       # number of overall MSHR miss cycles
system.icache.overall_mshr_miss_latency::total    442972000                       # number of overall MSHR miss cycles
system.icache.demand_mshr_miss_rate::.cpu.inst     0.015830                       # mshr miss rate for demand accesses
system.icache.demand_mshr_miss_rate::total     0.015830                       # mshr miss rate for demand accesses
system.icache.overall_mshr_miss_rate::.cpu.inst     0.015830                       # mshr miss rate for overall accesses
system.icache.overall_mshr_miss_rate::total     0.015830                       # mshr miss rate for overall accesses
system.icache.demand_avg_mshr_miss_latency::.cpu.inst 21202.948497                       # average overall mshr miss latency
system.icache.demand_avg_mshr_miss_latency::total 21202.948497                       # average overall mshr miss latency
system.icache.overall_avg_mshr_miss_latency::.cpu.inst 21202.948497                       # average overall mshr miss latency
system.icache.overall_avg_mshr_miss_latency::total 21202.948497                       # average overall mshr miss latency
system.icache.replacements                      20635                       # number of replacements
system.icache.ReadReq_hits::.cpu.inst         1298896                       # number of ReadReq hits
system.icache.ReadReq_hits::total             1298896                       # number of ReadReq hits
system.icache.ReadReq_misses::.cpu.inst         20892                       # number of ReadReq misses
system.icache.ReadReq_misses::total             20892                       # number of ReadReq misses
system.icache.ReadReq_miss_latency::.cpu.inst    484754000                       # number of ReadReq miss cycles
system.icache.ReadReq_miss_latency::total    484754000                       # number of ReadReq miss cycles
system.icache.ReadReq_accesses::.cpu.inst      1319788                       # number of ReadReq accesses(hits+misses)
system.icache.ReadReq_accesses::total         1319788                       # number of ReadReq accesses(hits+misses)
system.icache.ReadReq_miss_rate::.cpu.inst     0.015830                       # miss rate for ReadReq accesses
system.icache.ReadReq_miss_rate::total       0.015830                       # miss rate for ReadReq accesses
system.icache.ReadReq_avg_miss_latency::.cpu.inst 23202.852767                       # average ReadReq miss latency
system.icache.ReadReq_avg_miss_latency::total 23202.852767                       # average ReadReq miss latency
system.icache.ReadReq_mshr_misses::.cpu.inst        20892                       # number of ReadReq MSHR misses
system.icache.ReadReq_mshr_misses::total        20892                       # number of ReadReq MSHR misses
system.icache.ReadReq_mshr_miss_latency::.cpu.inst    442972000                       # number of ReadReq MSHR miss cycles
system.icache.ReadReq_mshr_miss_latency::total    442972000                       # number of ReadReq MSHR miss cycles
system.icache.ReadReq_mshr_miss_rate::.cpu.inst     0.015830                       # mshr miss rate for ReadReq accesses
system.icache.ReadReq_mshr_miss_rate::total     0.015830                       # mshr miss rate for ReadReq accesses
system.icache.ReadReq_avg_mshr_miss_latency::.cpu.inst 21202.948497                       # average ReadReq mshr miss latency
system.icache.ReadReq_avg_mshr_miss_latency::total 21202.948497                       # average ReadReq mshr miss latency
system.icache.power_state.pwrStateResidencyTicks::UNDEFINED   4048319000                       # Cumulative time (in ticks) in various power states
system.icache.tags.tagsinuse               251.914020                       # Cycle average of tags in use
system.icache.tags.total_refs                 1130960                       # Total number of references to valid blocks.
system.icache.tags.sampled_refs                 20635                       # Sample count of references to valid blocks.
system.icache.tags.avg_refs                 54.807851                       # Average number of references to valid blocks.
system.icache.tags.warmup_cycle                 82000                       # Cycle when the warmup percentage was hit.
system.icache.tags.occ_blocks::.cpu.inst   251.914020                       # Average occupied blocks per requestor
system.icache.tags.occ_percent::.cpu.inst     0.984039                       # Average percentage of cache occupancy
system.icache.tags.occ_percent::total        0.984039                       # Average percentage of cache occupancy
system.icache.tags.occ_task_id_blocks::1024          256                       # Occupied blocks per task id
system.icache.tags.age_task_id_blocks_1024::0           47                       # Occupied blocks per task id
system.icache.tags.age_task_id_blocks_1024::1           20                       # Occupied blocks per task id
system.icache.tags.age_task_id_blocks_1024::2           46                       # Occupied blocks per task id
system.icache.tags.age_task_id_blocks_1024::3          143                       # Occupied blocks per task id
system.icache.tags.occ_task_id_percent::1024            1                       # Percentage of cache occupancy per task id
system.icache.tags.tag_accesses               1340679                       # Number of tag accesses
system.icache.tags.data_accesses              1340679                       # Number of data accesses
system.icache.tags.power_state.pwrStateResidencyTicks::UNDEFINED   4048319000                       # Cumulative time (in ticks) in various power states
system.membus.trans_dist::ReadReq                4137                       # Transaction distribution
system.membus.trans_dist::ReadResp               4137                       # Transaction distribution
system.membus.trans_dist::WritebackDirty           73                       # Transaction distribution
system.membus.pkt_count_system.cache_small.mem_side::system.mem_ctrl.port         8347                       # Packet count per connected master and slave (bytes)
system.membus.pkt_count_system.cache_small.mem_side::total         8347                       # Packet count per connected master and slave (bytes)
system.membus.pkt_count::total                   8347                       # Packet count per connected master and slave (bytes)
system.membus.pkt_size_system.cache_small.mem_side::system.mem_ctrl.port       269440                       # Cumulative packet size per connected master and slave (bytes)
system.membus.pkt_size_system.cache_small.mem_side::total       269440                       # Cumulative packet size per connected master and slave (bytes)
system.membus.pkt_size::total                  269440                       # Cumulative packet size per connected master and slave (bytes)
system.membus.reqLayer2.occupancy             4502000                       # Layer occupancy (ticks)
system.membus.reqLayer2.utilization               0.1                       # Layer utilization (%)
system.membus.respLayer1.occupancy           22137500                       # Layer occupancy (ticks)
system.membus.respLayer1.utilization              0.5                       # Layer utilization (%)
system.membus.power_state.pwrStateResidencyTicks::UNDEFINED   4048319000                       # Cumulative time (in ticks) in various power states
system.mem_ctrl.bytes_read::.cpu.inst          122432                       # Number of bytes read from this memory
system.mem_ctrl.bytes_read::.cpu.data          142336                       # Number of bytes read from this memory
system.mem_ctrl.bytes_read::total              264768                       # Number of bytes read from this memory
system.mem_ctrl.bytes_inst_read::.cpu.inst       122432                       # Number of instructions bytes read from this memory
system.mem_ctrl.bytes_inst_read::total         122432                       # Number of instructions bytes read from this memory
system.mem_ctrl.bytes_written::.writebacks         4672                       # Number of bytes written to this memory
system.mem_ctrl.bytes_written::total             4672                       # Number of bytes written to this memory
system.mem_ctrl.num_reads::.cpu.inst             1913                       # Number of read requests responded to by this memory
system.mem_ctrl.num_reads::.cpu.data             2224                       # Number of read requests responded to by this memory
system.mem_ctrl.num_reads::total                 4137                       # Number of read requests responded to by this memory
system.mem_ctrl.num_writes::.writebacks            73                       # Number of write requests responded to by this memory
system.mem_ctrl.num_writes::total                  73                       # Number of write requests responded to by this memory
system.mem_ctrl.bw_read::.cpu.inst           30242676                       # Total read bandwidth from this memory (bytes/s)
system.mem_ctrl.bw_read::.cpu.data           35159285                       # Total read bandwidth from this memory (bytes/s)
system.mem_ctrl.bw_read::total               65401961                       # Total read bandwidth from this memory (bytes/s)
system.mem_ctrl.bw_inst_read::.cpu.inst      30242676                       # Instruction read bandwidth from this memory (bytes/s)
system.mem_ctrl.bw_inst_read::total          30242676                       # Instruction read bandwidth from this memory (bytes/s)
system.mem_ctrl.bw_write::.writebacks         1154059                       # Write bandwidth from this memory (bytes/s)
system.mem_ctrl.bw_write::total               1154059                       # Write bandwidth from this memory (bytes/s)
system.mem_ctrl.bw_total::.writebacks         1154059                       # Total bandwidth to/from this memory (bytes/s)
system.mem_ctrl.bw_total::.cpu.inst          30242676                       # Total bandwidth to/from this memory (bytes/s)
system.mem_ctrl.bw_total::.cpu.data          35159285                       # Total bandwidth to/from this memory (bytes/s)
system.mem_ctrl.bw_total::total              66556020                       # Total bandwidth to/from this memory (bytes/s)
system.mem_ctrl.avgPriority_.writebacks::samples        72.00                       # Average QoS priority value for accepted requests
system.mem_ctrl.avgPriority_.cpu.inst::samples      1913.00                       # Average QoS priority value for accepted requests
system.mem_ctrl.avgPriority_.cpu.data::samples      2224.00                       # Average QoS priority value for accepted requests
system.mem_ctrl.priorityMinLatency       0.000000018750                       # per QoS priority minimum request to response latency (s)
system.mem_ctrl.priorityMaxLatency       0.004087050500                       # per QoS priority maximum request to response latency (s)
system.mem_ctrl.numReadWriteTurnArounds             3                       # Number of turnarounds from READ to WRITE
system.mem_ctrl.numWriteReadTurnArounds             3                       # Number of turnarounds from WRITE to READ
system.mem_ctrl.numStayReadState                 9383                       # Number of times bus staying in READ state
system.mem_ctrl.numStayWriteState                  49                       # Number of times bus staying in WRITE state
system.mem_ctrl.readReqs                         4137                       # Number of read requests accepted
system.mem_ctrl.writeReqs                          73                       # Number of write requests accepted
system.mem_ctrl.readBursts                       4137                       # Number of DRAM read bursts, including those serviced by the write queue
system.mem_ctrl.writeBursts                        73                       # Number of DRAM write bursts, including those merged in the write queue
system.mem_ctrl.servicedByWrQ                       0                       # Number of DRAM read bursts serviced by the write queue
system.mem_ctrl.mergedWrBursts                      1                       # Number of DRAM write bursts merged with an existing one
system.mem_ctrl.neitherReadNorWriteReqs             0                       # Number of requests that are neither read nor write
system.mem_ctrl.perBankRdBursts::0                384                       # Per bank write bursts
system.mem_ctrl.perBankRdBursts::1                468                       # Per bank write bursts
system.mem_ctrl.perBankRdBursts::2                334                       # Per bank write bursts
system.mem_ctrl.perBankRdBursts::3                 82                       # Per bank write bursts
system.mem_ctrl.perBankRdBursts::4                189                       # Per bank write bursts
system.mem_ctrl.perBankRdBursts::5                304                       # Per bank write bursts
system.mem_ctrl.perBankRdBursts::6                130                       # Per bank write bursts
system.mem_ctrl.perBankRdBursts::7                354                       # Per bank write bursts
system.mem_ctrl.perBankRdBursts::8                141                       # Per bank write bursts
system.mem_ctrl.perBankRdBursts::9                202                       # Per bank write bursts
system.mem_ctrl.perBankRdBursts::10               117                       # Per bank write bursts
system.mem_ctrl.perBankRdBursts::11               381                       # Per bank write bursts
system.mem_ctrl.perBankRdBursts::12               262                       # Per bank write bursts
system.mem_ctrl.perBankRdBursts::13               280                       # Per bank write bursts
system.mem_ctrl.perBankRdBursts::14               244                       # Per bank write bursts
system.mem_ctrl.perBankRdBursts::15               265                       # Per bank write bursts
system.mem_ctrl.perBankWrBursts::0                  1                       # Per bank write bursts
system.mem_ctrl.perBankWrBursts::1                  0                       # Per bank write bursts
system.mem_ctrl.perBankWrBursts::2                  0                       # Per bank write bursts
system.mem_ctrl.perBankWrBursts::3                  0                       # Per bank write bursts
system.mem_ctrl.perBankWrBursts::4                  2                       # Per bank write bursts
system.mem_ctrl.perBankWrBursts::5                  2                       # Per bank write bursts
system.mem_ctrl.perBankWrBursts::6                  0                       # Per bank write bursts
system.mem_ctrl.perBankWrBursts::7                  0                       # Per bank write bursts
system.mem_ctrl.perBankWrBursts::8                  0                       # Per bank write bursts
system.mem_ctrl.perBankWrBursts::9                  0                       # Per bank write bursts
system.mem_ctrl.perBankWrBursts::10                 0                       # Per bank write bursts
system.mem_ctrl.perBankWrBursts::11                38                       # Per bank write bursts
system.mem_ctrl.perBankWrBursts::12                 8                       # Per bank write bursts
system.mem_ctrl.perBankWrBursts::13                 1                       # Per bank write bursts
system.mem_ctrl.perBankWrBursts::14                 0                       # Per bank write bursts
system.mem_ctrl.perBankWrBursts::15                 0                       # Per bank write bursts
system.mem_ctrl.avgRdQLen                        1.00                       # Average read queue length when enqueuing
system.mem_ctrl.avgWrQLen                       11.25                       # Average write queue length when enqueuing
system.mem_ctrl.totQLat                      39258500                       # Total ticks spent queuing
system.mem_ctrl.totBusLat                    20685000                       # Total ticks spent in databus transfers
system.mem_ctrl.totMemAccLat                116827250                       # Total ticks spent from burst creation until serviced by the DRAM
system.mem_ctrl.avgQLat                       9489.61                       # Average queueing delay per DRAM burst
system.mem_ctrl.avgBusLat                     5000.00                       # Average bus latency per DRAM burst
system.mem_ctrl.avgMemAccLat                 28239.61                       # Average memory access latency per DRAM burst
system.mem_ctrl.numRdRetry                          0                       # Number of times read queue was full causing retry
system.mem_ctrl.numWrRetry                          0                       # Number of times write queue was full causing retry
system.mem_ctrl.readRowHits                      2652                       # Number of row buffer hits during reads
system.mem_ctrl.writeRowHits                       43                       # Number of row buffer hits during writes
system.mem_ctrl.readRowHitRate                  64.10                       # Row buffer hit rate for reads
system.mem_ctrl.writeRowHitRate                 59.72                       # Row buffer hit rate for writes
system.mem_ctrl.readPktSize::0                      0                       # Read request sizes (log2)
system.mem_ctrl.readPktSize::1                      0                       # Read request sizes (log2)
system.mem_ctrl.readPktSize::2                      0                       # Read request sizes (log2)
system.mem_ctrl.readPktSize::3                      0                       # Read request sizes (log2)
system.mem_ctrl.readPktSize::4                      0                       # Read request sizes (log2)
system.mem_ctrl.readPktSize::5                      0                       # Read request sizes (log2)
system.mem_ctrl.readPktSize::6                   4137                       # Read request sizes (log2)
system.mem_ctrl.writePktSize::0                     0                       # Write request sizes (log2)
system.mem_ctrl.writePktSize::1                     0                       # Write request sizes (log2)
system.mem_ctrl.writePktSize::2                     0                       # Write request sizes (log2)
system.mem_ctrl.writePktSize::3                     0                       # Write request sizes (log2)
system.mem_ctrl.writePktSize::4                     0                       # Write request sizes (log2)
system.mem_ctrl.writePktSize::5                     0                       # Write request sizes (log2)
system.mem_ctrl.writePktSize::6                    73                       # Write request sizes (log2)
system.mem_ctrl.rdQLenPdf::0                     4135                       # What read queue length does an incoming req see
system.mem_ctrl.rdQLenPdf::1                        2                       # What read queue length does an incoming req see
system.mem_ctrl.rdQLenPdf::2                        0                       # What read queue length does an incoming req see
system.mem_ctrl.rdQLenPdf::3                        0                       # What read queue length does an incoming req see
system.mem_ctrl.rdQLenPdf::4                        0                       # What read queue length does an incoming req see
system.mem_ctrl.rdQLenPdf::5                        0                       # What read queue length does an incoming req see
system.mem_ctrl.rdQLenPdf::6                        0                       # What read queue length does an incoming req see
system.mem_ctrl.rdQLenPdf::7                        0                       # What read queue length does an incoming req see
system.mem_ctrl.rdQLenPdf::8                        0                       # What read queue length does an incoming req see
system.mem_ctrl.rdQLenPdf::9                        0                       # What read queue length does an incoming req see
system.mem_ctrl.rdQLenPdf::10                       0                       # What read queue length does an incoming req see
system.mem_ctrl.rdQLenPdf::11                       0                       # What read queue length does an incoming req see
system.mem_ctrl.rdQLenPdf::12                       0                       # What read queue length does an incoming req see
system.mem_ctrl.rdQLenPdf::13                       0                       # What read queue length does an incoming req see
system.mem_ctrl.rdQLenPdf::14                       0                       # What read queue length does an incoming req see
system.mem_ctrl.rdQLenPdf::15                       0                       # What read queue length does an incoming req see
system.mem_ctrl.rdQLenPdf::16                       0                       # What read queue length does an incoming req see
system.mem_ctrl.rdQLenPdf::17                       0                       # What read queue length does an incoming req see
system.mem_ctrl.rdQLenPdf::18                       0                       # What read queue length does an incoming req see
system.mem_ctrl.rdQLenPdf::19                       0                       # What read queue length does an incoming req see
system.mem_ctrl.rdQLenPdf::20                       0                       # What read queue length does an incoming req see
system.mem_ctrl.rdQLenPdf::21                       0                       # What read queue length does an incoming req see
system.mem_ctrl.rdQLenPdf::22                       0                       # What read queue length does an incoming req see
system.mem_ctrl.rdQLenPdf::23                       0                       # What read queue length does an incoming req see
system.mem_ctrl.rdQLenPdf::24                       0                       # What read queue length does an incoming req see
system.mem_ctrl.rdQLenPdf::25                       0                       # What read queue length does an incoming req see
system.mem_ctrl.rdQLenPdf::26                       0                       # What read queue length does an incoming req see
system.mem_ctrl.rdQLenPdf::27                       0                       # What read queue length does an incoming req see
system.mem_ctrl.rdQLenPdf::28                       0                       # What read queue length does an incoming req see
system.mem_ctrl.rdQLenPdf::29                       0                       # What read queue length does an incoming req see
system.mem_ctrl.rdQLenPdf::30                       0                       # What read queue length does an incoming req see
system.mem_ctrl.rdQLenPdf::31                       0                       # What read queue length does an incoming req see
system.mem_ctrl.wrQLenPdf::0                        1                       # What write queue length does an incoming req see
system.mem_ctrl.wrQLenPdf::1                        1                       # What write queue length does an incoming req see
system.mem_ctrl.wrQLenPdf::2                        1                       # What write queue length does an incoming req see
system.mem_ctrl.wrQLenPdf::3                        1                       # What write queue length does an incoming req see
system.mem_ctrl.wrQLenPdf::4                        1                       # What write queue length does an incoming req see
system.mem_ctrl.wrQLenPdf::5                        1                       # What write queue length does an incoming req see
system.mem_ctrl.wrQLenPdf::6                        1                       # What write queue length does an incoming req see
system.mem_ctrl.wrQLenPdf::7                        1                       # What write queue length does an incoming req see
system.mem_ctrl.wrQLenPdf::8                        1                       # What write queue length does an incoming req see
system.mem_ctrl.wrQLenPdf::9                        1                       # What write queue length does an incoming req see
system.mem_ctrl.wrQLenPdf::10                       1                       # What write queue length does an incoming req see
system.mem_ctrl.wrQLenPdf::11                       1                       # What write queue length does an incoming req see
system.mem_ctrl.wrQLenPdf::12                       1                       # What write queue length does an incoming req see
system.mem_ctrl.wrQLenPdf::13                       1                       # What write queue length does an incoming req see
system.mem_ctrl.wrQLenPdf::14                       1                       # What write queue length does an incoming req see
system.mem_ctrl.wrQLenPdf::15                       3                       # What write queue length does an incoming req see
system.mem_ctrl.wrQLenPdf::16                       3                       # What write queue length does an incoming req see
system.mem_ctrl.wrQLenPdf::17                       4                       # What write queue length does an incoming req see
system.mem_ctrl.wrQLenPdf::18                       4                       # What write queue length does an incoming req see
system.mem_ctrl.wrQLenPdf::19                       4                       # What write queue length does an incoming req see
system.mem_ctrl.wrQLenPdf::20                       3                       # What write queue length does an incoming req see
system.mem_ctrl.wrQLenPdf::21                       3                       # What write queue length does an incoming req see
system.mem_ctrl.wrQLenPdf::22                       3                       # What write queue length does an incoming req see
system.mem_ctrl.wrQLenPdf::23                       3                       # What write queue length does an incoming req see
system.mem_ctrl.wrQLenPdf::24                       3                       # What write queue length does an incoming req see
system.mem_ctrl.wrQLenPdf::25                       3                       # What write queue length does an incoming req see
system.mem_ctrl.wrQLenPdf::26                       3                       # What write queue length does an incoming req see
system.mem_ctrl.wrQLenPdf::27                       3                       # What write queue length does an incoming req see
system.mem_ctrl.wrQLenPdf::28                       3                       # What write queue length does an incoming req see
system.mem_ctrl.wrQLenPdf::29                       3                       # What write queue length does an incoming req see
system.mem_ctrl.wrQLenPdf::30                       3                       # What write queue length does an incoming req see
system.mem_ctrl.wrQLenPdf::31                       3                       # What write queue length does an incoming req see
system.mem_ctrl.wrQLenPdf::32                       3                       # What write queue length does an incoming req see
system.mem_ctrl.wrQLenPdf::33                       0                       # What write queue length does an incoming req see
system.mem_ctrl.wrQLenPdf::34                       0                       # What write queue length does an incoming req see
system.mem_ctrl.wrQLenPdf::35                       0                       # What write queue length does an incoming req see
system.mem_ctrl.wrQLenPdf::36                       0                       # What write queue length does an incoming req see
system.mem_ctrl.wrQLenPdf::37                       0                       # What write queue length does an incoming req see
system.mem_ctrl.wrQLenPdf::38                       0                       # What write queue length does an incoming req see
system.mem_ctrl.wrQLenPdf::39                       0                       # What write queue length does an incoming req see
system.mem_ctrl.wrQLenPdf::40                       0                       # What write queue length does an incoming req see
system.mem_ctrl.wrQLenPdf::41                       0                       # What write queue length does an incoming req see
system.mem_ctrl.wrQLenPdf::42                       0                       # What write queue length does an incoming req see
system.mem_ctrl.wrQLenPdf::43                       0                       # What write queue length does an incoming req see
system.mem_ctrl.wrQLenPdf::44                       0                       # What write queue length does an incoming req see
system.mem_ctrl.wrQLenPdf::45                       0                       # What write queue length does an incoming req see
system.mem_ctrl.wrQLenPdf::46                       0                       # What write queue length does an incoming req see
system.mem_ctrl.wrQLenPdf::47                       0                       # What write queue length does an incoming req see
system.mem_ctrl.wrQLenPdf::48                       0                       # What write queue length does an incoming req see
system.mem_ctrl.wrQLenPdf::49                       0                       # What write queue length does an incoming req see
system.mem_ctrl.wrQLenPdf::50                       0                       # What write queue length does an incoming req see
system.mem_ctrl.wrQLenPdf::51                       0                       # What write queue length does an incoming req see
system.mem_ctrl.wrQLenPdf::52                       0                       # What write queue length does an incoming req see
system.mem_ctrl.wrQLenPdf::53                       0                       # What write queue length does an incoming req see
system.mem_ctrl.wrQLenPdf::54                       0                       # What write queue length does an incoming req see
system.mem_ctrl.wrQLenPdf::55                       0                       # What write queue length does an incoming req see
system.mem_ctrl.wrQLenPdf::56                       0                       # What write queue length does an incoming req see
system.mem_ctrl.wrQLenPdf::57                       0                       # What write queue length does an incoming req see
system.mem_ctrl.wrQLenPdf::58                       0                       # What write queue length does an incoming req see
system.mem_ctrl.wrQLenPdf::59                       0                       # What write queue length does an incoming req see
system.mem_ctrl.wrQLenPdf::60                       0                       # What write queue length does an incoming req see
system.mem_ctrl.wrQLenPdf::61                       0                       # What write queue length does an incoming req see
system.mem_ctrl.wrQLenPdf::62                       0                       # What write queue length does an incoming req see
system.mem_ctrl.wrQLenPdf::63                       0                       # What write queue length does an incoming req see
system.mem_ctrl.bytesPerActivate::samples         1491                       # Bytes accessed per row activation
system.mem_ctrl.bytesPerActivate::mean     179.423206                       # Bytes accessed per row activation
system.mem_ctrl.bytesPerActivate::gmean    131.371578                       # Bytes accessed per row activation
system.mem_ctrl.bytesPerActivate::stdev    177.534131                       # Bytes accessed per row activation
system.mem_ctrl.bytesPerActivate::0-127           601     40.31%     40.31% # Bytes accessed per row activation
system.mem_ctrl.bytesPerActivate::128-255          545     36.55%     76.86% # Bytes accessed per row activation
system.mem_ctrl.bytesPerActivate::256-383          190     12.74%     89.60% # Bytes accessed per row activation
system.mem_ctrl.bytesPerActivate::384-511           60      4.02%     93.63% # Bytes accessed per row activation
system.mem_ctrl.bytesPerActivate::512-639           34      2.28%     95.91% # Bytes accessed per row activation
system.mem_ctrl.bytesPerActivate::640-767           22      1.48%     97.38% # Bytes accessed per row activation
system.mem_ctrl.bytesPerActivate::768-895           12      0.80%     98.19% # Bytes accessed per row activation
system.mem_ctrl.bytesPerActivate::896-1023            5      0.34%     98.52% # Bytes accessed per row activation
system.mem_ctrl.bytesPerActivate::1024-1151           22      1.48%    100.00% # Bytes accessed per row activation
system.mem_ctrl.bytesPerActivate::total          1491                       # Bytes accessed per row activation
system.mem_ctrl.rdPerTurnAround::samples            3                       # Reads before turning the bus around for writes
system.mem_ctrl.rdPerTurnAround::mean     1327.333333                       # Reads before turning the bus around for writes
system.mem_ctrl.rdPerTurnAround::gmean     292.460718                       # Reads before turning the bus around for writes
system.mem_ctrl.rdPerTurnAround::stdev    2026.516798                       # Reads before turning the bus around for writes
system.mem_ctrl.rdPerTurnAround::0-127              1     33.33%     33.33% # Reads before turning the bus around for writes
system.mem_ctrl.rdPerTurnAround::256-383            1     33.33%     66.67% # Reads before turning the bus around for writes
system.mem_ctrl.rdPerTurnAround::3584-3711            1     33.33%    100.00% # Reads before turning the bus around for writes
system.mem_ctrl.rdPerTurnAround::total              3                       # Reads before turning the bus around for writes
system.mem_ctrl.wrPerTurnAround::samples            3                       # Writes before turning the bus around for reads
system.mem_ctrl.wrPerTurnAround::mean       17.333333                       # Writes before turning the bus around for reads
system.mem_ctrl.wrPerTurnAround::gmean      17.306995                       # Writes before turning the bus around for reads
system.mem_ctrl.wrPerTurnAround::stdev       1.154701                       # Writes before turning the bus around for reads
system.mem_ctrl.wrPerTurnAround::16                 1     33.33%     33.33% # Writes before turning the bus around for reads
system.mem_ctrl.wrPerTurnAround::18                 2     66.67%    100.00% # Writes before turning the bus around for reads
system.mem_ctrl.wrPerTurnAround::total              3                       # Writes before turning the bus around for reads
system.mem_ctrl.bytesReadDRAM                  264768                       # Total number of bytes read from DRAM
system.mem_ctrl.bytesReadWrQ                        0                       # Total number of bytes read from write queue
system.mem_ctrl.bytesWritten                     3328                       # Total number of bytes written to DRAM
system.mem_ctrl.bytesReadSys                   264768                       # Total read bytes from the system interface side
system.mem_ctrl.bytesWrittenSys                  4672                       # Total written bytes from the system interface side
system.mem_ctrl.avgRdBW                         65.40                       # Average DRAM read bandwidth in MiByte/s
system.mem_ctrl.avgWrBW                          0.82                       # Average achieved write bandwidth in MiByte/s
system.mem_ctrl.avgRdBWSys                      65.40                       # Average system read bandwidth in MiByte/s
system.mem_ctrl.avgWrBWSys                       1.15                       # Average system write bandwidth in MiByte/s
system.mem_ctrl.peakBW                       12800.00                       # Theoretical peak bandwidth in MiByte/s
system.mem_ctrl.busUtil                          0.52                       # Data bus utilization in percentage
system.mem_ctrl.busUtilRead                      0.51                       # Data bus utilization in percentage for reads
system.mem_ctrl.busUtilWrite                     0.01                       # Data bus utilization in percentage for writes
system.mem_ctrl.totGap                     4044871000                       # Total gap between requests
system.mem_ctrl.avgGap                      960776.96                       # Average gap between requests
system.mem_ctrl.masterReadBytes::.cpu.inst       122432                       # Per-master bytes read from memory
system.mem_ctrl.masterReadBytes::.cpu.data       142336                       # Per-master bytes read from memory
system.mem_ctrl.masterWriteBytes::.writebacks         3328                       # Per-master bytes write to memory
system.mem_ctrl.masterReadRate::.cpu.inst 30242676.034176159650                       # Per-master bytes read from memory rate (Bytes/sec)
system.mem_ctrl.masterReadRate::.cpu.data 35159284.631472967565                       # Per-master bytes read from memory rate (Bytes/sec)
system.mem_ctrl.masterWriteRate::.writebacks 822069.604692713241                       # Per-master bytes write to memory rate (Bytes/sec)
system.mem_ctrl.masterReadAccesses::.cpu.inst         1913                       # Per-master read serviced memory accesses
system.mem_ctrl.masterReadAccesses::.cpu.data         2224                       # Per-master read serviced memory accesses
system.mem_ctrl.masterWriteAccesses::.writebacks           73                       # Per-master write serviced memory accesses
system.mem_ctrl.masterReadTotalLat::.cpu.inst     52197000                       # Per-master read total memory access latency
system.mem_ctrl.masterReadTotalLat::.cpu.data     64630250                       # Per-master read total memory access latency
system.mem_ctrl.masterWriteTotalLat::.writebacks  23588342500                       # Per-master write total memory access latency
system.mem_ctrl.masterReadAvgLat::.cpu.inst     27285.42                       # Per-master read average memory access latency
system.mem_ctrl.masterReadAvgLat::.cpu.data     29060.36                       # Per-master read average memory access latency
system.mem_ctrl.masterWriteAvgLat::.writebacks 323127979.45                       # Per-master write average memory access latency
system.mem_ctrl.pageHitRate                     64.03                       # Row buffer hit rate, read and write combined
system.mem_ctrl.rank1.actEnergy               4990860                       # Energy for activate commands per rank (pJ)
system.mem_ctrl.rank1.preEnergy               2648910                       # Energy for precharge commands per rank (pJ)
system.mem_ctrl.rank1.readEnergy             13508880                       # Energy for read commands per rank (pJ)
system.mem_ctrl.rank1.writeEnergy              245340                       # Energy for write commands per rank (pJ)
system.mem_ctrl.rank1.refreshEnergy      318998160.000000                       # Energy for refresh commands per rank (pJ)
system.mem_ctrl.rank1.actBackEnergy         918133770                       # Energy for active background per rank (pJ)
system.mem_ctrl.rank1.preBackEnergy         781389600                       # Energy for precharge background per rank (pJ)
system.mem_ctrl.rank1.actPowerDownEnergy            0                       # Energy for active power-down per rank (pJ)
system.mem_ctrl.rank1.prePowerDownEnergy            0                       # Energy for precharge power-down per rank (pJ)
system.mem_ctrl.rank1.selfRefreshEnergy             0                       # Energy for self refresh per rank (pJ)
system.mem_ctrl.rank1.totalEnergy          2039915520                       # Total energy per rank (pJ)
system.mem_ctrl.rank1.averagePower         503.891991                       # Core power per rank (mW)
system.mem_ctrl.rank1.totalIdleTime                 0                       # Total Idle time Per DRAM Rank
system.mem_ctrl.rank1.memoryStateTime::IDLE   2022250000                       # Time in different power states
system.mem_ctrl.rank1.memoryStateTime::REF    134940000                       # Time in different power states
system.mem_ctrl.rank1.memoryStateTime::SREF            0                       # Time in different power states
system.mem_ctrl.rank1.memoryStateTime::PRE_PDN            0                       # Time in different power states
system.mem_ctrl.rank1.memoryStateTime::ACT   1891129000                       # Time in different power states
system.mem_ctrl.rank1.memoryStateTime::ACT_PDN            0                       # Time in different power states
system.mem_ctrl.rank0.actEnergy               5676300                       # Energy for activate commands per rank (pJ)
system.mem_ctrl.rank0.preEnergy               3009435                       # Energy for precharge commands per rank (pJ)
system.mem_ctrl.rank0.readEnergy             16029300                       # Energy for read commands per rank (pJ)
system.mem_ctrl.rank0.writeEnergy               26100                       # Energy for write commands per rank (pJ)
system.mem_ctrl.rank0.refreshEnergy      318998160.000000                       # Energy for refresh commands per rank (pJ)
system.mem_ctrl.rank0.actBackEnergy         871036950                       # Energy for active background per rank (pJ)
system.mem_ctrl.rank0.preBackEnergy         821050080                       # Energy for precharge background per rank (pJ)
system.mem_ctrl.rank0.actPowerDownEnergy            0                       # Energy for active power-down per rank (pJ)
system.mem_ctrl.rank0.prePowerDownEnergy            0                       # Energy for precharge power-down per rank (pJ)
system.mem_ctrl.rank0.selfRefreshEnergy             0                       # Energy for self refresh per rank (pJ)
system.mem_ctrl.rank0.totalEnergy          2035826325                       # Total energy per rank (pJ)
system.mem_ctrl.rank0.averagePower         502.881894                       # Core power per rank (mW)
system.mem_ctrl.rank0.totalIdleTime                 0                       # Total Idle time Per DRAM Rank
system.mem_ctrl.rank0.memoryStateTime::IDLE   2125918250                       # Time in different power states
system.mem_ctrl.rank0.memoryStateTime::REF    134940000                       # Time in different power states
system.mem_ctrl.rank0.memoryStateTime::SREF            0                       # Time in different power states
system.mem_ctrl.rank0.memoryStateTime::PRE_PDN            0                       # Time in different power states
system.mem_ctrl.rank0.memoryStateTime::ACT   1787460750                       # Time in different power states
system.mem_ctrl.rank0.memoryStateTime::ACT_PDN            0                       # Time in different power states
system.mem_ctrl.power_state.pwrStateResidencyTicks::UNDEFINED   4048319000                       # Cumulative time (in ticks) in various power states
system.cache_medium.blocked_cycles::no_mshrs            0                       # number of cycles access was blocked
system.cache_medium.blocked_cycles::no_targets            0                       # number of cycles access was blocked
system.cache_medium.blocked::no_mshrs               0                       # number of cycles access was blocked
system.cache_medium.blocked::no_targets             0                       # number of cycles access was blocked
system.cache_medium.avg_blocked_cycles::no_mshrs          nan                       # average number of cycles each access was blocked
system.cache_medium.avg_blocked_cycles::no_targets          nan                       # average number of cycles each access was blocked
system.cache_medium.replacements                    0                       # number of replacements
system.cache_medium.power_state.pwrStateResidencyTicks::UNDEFINED   4048319000                       # Cumulative time (in ticks) in various power states
system.cache_medium.tags.tagsinuse                  0                       # Cycle average of tags in use
system.cache_medium.tags.total_refs                 0                       # Total number of references to valid blocks.
system.cache_medium.tags.sampled_refs               0                       # Sample count of references to valid blocks.
system.cache_medium.tags.avg_refs                 nan                       # Average number of references to valid blocks.
system.cache_medium.tags.warmup_cycle               0                       # Cycle when the warmup percentage was hit.
system.cache_medium.tags.tag_accesses               0                       # Number of tag accesses
system.cache_medium.tags.data_accesses              0                       # Number of data accesses
system.cache_medium.tags.power_state.pwrStateResidencyTicks::UNDEFINED   4048319000                       # Cumulative time (in ticks) in various power states
system.clk_domain.clock                          1000                       # Clock period in ticks
system.clk_domain.voltage_domain.voltage            1                       # Voltage in Volts
system.dcache.demand_hits::.cpu.data           334134                       # number of demand (read+write) hits
system.dcache.demand_hits::total               334134                       # number of demand (read+write) hits
system.dcache.overall_hits::.cpu.data          334134                       # number of overall hits
system.dcache.overall_hits::total              334134                       # number of overall hits
system.dcache.demand_misses::.cpu.data           7018                       # number of demand (read+write) misses
system.dcache.demand_misses::total               7018                       # number of demand (read+write) misses
system.dcache.overall_misses::.cpu.data          7018                       # number of overall misses
system.dcache.overall_misses::total              7018                       # number of overall misses
system.dcache.demand_miss_latency::.cpu.data    255628000                       # number of demand (read+write) miss cycles
system.dcache.demand_miss_latency::total    255628000                       # number of demand (read+write) miss cycles
system.dcache.overall_miss_latency::.cpu.data    255628000                       # number of overall miss cycles
system.dcache.overall_miss_latency::total    255628000                       # number of overall miss cycles
system.dcache.demand_accesses::.cpu.data       341152                       # number of demand (read+write) accesses
system.dcache.demand_accesses::total           341152                       # number of demand (read+write) accesses
system.dcache.overall_accesses::.cpu.data       341152                       # number of overall (read+write) accesses
system.dcache.overall_accesses::total          341152                       # number of overall (read+write) accesses
system.dcache.demand_miss_rate::.cpu.data     0.020571                       # miss rate for demand accesses
system.dcache.demand_miss_rate::total        0.020571                       # miss rate for demand accesses
system.dcache.overall_miss_rate::.cpu.data     0.020571                       # miss rate for overall accesses
system.dcache.overall_miss_rate::total       0.020571                       # miss rate for overall accesses
system.dcache.demand_avg_miss_latency::.cpu.data 36424.622400                       # average overall miss latency
system.dcache.demand_avg_miss_latency::total 36424.622400                       # average overall miss latency
system.dcache.overall_avg_miss_latency::.cpu.data 36424.622400                       # average overall miss latency
system.dcache.overall_avg_miss_latency::total 36424.622400                       # average overall miss latency
system.dcache.blocked_cycles::no_mshrs              0                       # number of cycles access was blocked
system.dcache.blocked_cycles::no_targets            0                       # number of cycles access was blocked
system.dcache.blocked::no_mshrs                     0                       # number of cycles access was blocked
system.dcache.blocked::no_targets                   0                       # number of cycles access was blocked
system.dcache.avg_blocked_cycles::no_mshrs          nan                       # average number of cycles each access was blocked
system.dcache.avg_blocked_cycles::no_targets          nan                       # average number of cycles each access was blocked
system.dcache.writebacks::.writebacks            3798                       # number of writebacks
system.dcache.writebacks::total                  3798                       # number of writebacks
system.dcache.demand_mshr_misses::.cpu.data         7018                       # number of demand (read+write) MSHR misses
system.dcache.demand_mshr_misses::total          7018                       # number of demand (read+write) MSHR misses
system.dcache.overall_mshr_misses::.cpu.data         7018                       # number of overall MSHR misses
system.dcache.overall_mshr_misses::total         7018                       # number of overall MSHR misses
system.dcache.demand_mshr_miss_latency::.cpu.data    241592000                       # number of demand (read+write) MSHR miss cycles
system.dcache.demand_mshr_miss_latency::total    241592000                       # number of demand (read+write) MSHR miss cycles
[...]
system.dcache.tags.age_task_id_blocks_1024::0           30                       # Occupied blocks per task id
system.dcache.tags.age_task_id_blocks_1024::1          170                       # Occupied blocks per task id
system.dcache.tags.age_task_id_blocks_1024::2           56                       # Occupied blocks per task id
system.dcache.tags.occ_task_id_percent::1024            1                       # Percentage of cache occupancy per task id
system.dcache.tags.tag_accesses               2091696                       # Number of tag accesses
system.dcache.tags.data_accesses              2091696                       # Number of data accesses
system.dcache.tags.power_state.pwrStateResidencyTicks::UNDEFINED  24502654000                       # Cumulative time (in ticks) in various power states
system.cache_large.blocked_cycles::no_mshrs            0                       # number of cycles access was blocked
system.cache_large.blocked_cycles::no_targets            0                       # number of cycles access was blocked
system.cache_large.blocked::no_mshrs                0                       # number of cycles access was blocked
system.cache_large.blocked::no_targets              0                       # number of cycles access was blocked
system.cache_large.avg_blocked_cycles::no_mshrs          nan                       # average number of cycles each access was blocked
system.cache_large.avg_blocked_cycles::no_targets          nan                       # average number of cycles each access was blocked
system.cache_large.replacements                     0                       # number of replacements
system.cache_large.power_state.pwrStateResidencyTicks::UNDEFINED  24502654000                       # Cumulative time (in ticks) in various power states
system.cache_large.tags.tagsinuse                   0                       # Cycle average of tags in use
system.cache_large.tags.total_refs                  0                       # Total number of references to valid blocks.
system.cache_large.tags.sampled_refs                0                       # Sample count of references to valid blocks.
system.cache_large.tags.avg_refs                  nan                       # Average number of references to valid blocks.
system.cache_large.tags.warmup_cycle                0                       # Cycle when the warmup percentage was hit.
system.cache_large.tags.tag_accesses                0                       # Number of tag accesses
system.cache_large.tags.data_accesses               0                       # Number of data accesses
system.cache_large.tags.power_state.pwrStateResidencyTicks::UNDEFINED  24502654000                       # Cumulative time (in ticks) in various power states
system.l2cache.demand_hits::.cpu.inst           11650                       # number of demand (read+write) hits
system.l2cache.demand_hits::.cpu.data           13185                       # number of demand (read+write) hits
system.l2cache.demand_hits::total               24835                       # number of demand (read+write) hits
system.l2cache.overall_hits::.cpu.inst          11650                       # number of overall hits
system.l2cache.overall_hits::.cpu.data          13185                       # number of overall hits
system.l2cache.overall_hits::total              24835                       # number of overall hits
system.l2cache.demand_misses::.cpu.inst         26306                       # number of demand (read+write) misses
system.l2cache.demand_misses::.cpu.data         43428                       # number of demand (read+write) misses
system.l2cache.demand_misses::total             69734                       # number of demand (read+write) misses
system.l2cache.overall_misses::.cpu.inst        26306                       # number of overall misses
system.l2cache.overall_misses::.cpu.data        43428                       # number of overall misses
system.l2cache.overall_misses::total            69734                       # number of overall misses
system.l2cache.demand_miss_latency::.cpu.inst    499880000                       # number of demand (read+write) miss cycles
system.l2cache.demand_miss_latency::.cpu.data   1322716000                       # number of demand (read+write) miss cycles
system.l2cache.demand_miss_latency::total   1822596000                       # number of demand (read+write) miss cycles
system.l2cache.overall_miss_latency::.cpu.inst    499880000                       # number of overall miss cycles
system.l2cache.overall_miss_latency::.cpu.data   1322716000                       # number of overall miss cycles
system.l2cache.overall_miss_latency::total   1822596000                       # number of overall miss cycles
system.l2cache.demand_accesses::.cpu.inst        37956                       # number of demand (read+write) accesses
system.l2cache.demand_accesses::.cpu.data        56613                       # number of demand (read+write) accesses
system.l2cache.demand_accesses::total           94569                       # number of demand (read+write) accesses
system.l2cache.overall_accesses::.cpu.inst        37956                       # number of overall (read+write) accesses
system.l2cache.overall_accesses::.cpu.data        56613                       # number of overall (read+write) accesses
system.l2cache.overall_accesses::total          94569                       # number of overall (read+write) accesses
system.l2cache.demand_miss_rate::.cpu.inst     0.693066                       # miss rate for demand accesses
system.l2cache.demand_miss_rate::.cpu.data     0.767103                       # miss rate for demand accesses
system.l2cache.demand_miss_rate::total       0.737388                       # miss rate for demand accesses
system.l2cache.overall_miss_rate::.cpu.inst     0.693066                       # miss rate for overall accesses
system.l2cache.overall_miss_rate::.cpu.data     0.767103                       # miss rate for overall accesses
system.l2cache.overall_miss_rate::total      0.737388                       # miss rate for overall accesses
system.l2cache.demand_avg_miss_latency::.cpu.inst 19002.508933                       # average overall miss latency
system.l2cache.demand_avg_miss_latency::.cpu.data 30457.677075                       # average overall miss latency
system.l2cache.demand_avg_miss_latency::total 26136.404050                       # average overall miss latency
system.l2cache.overall_avg_miss_latency::.cpu.inst 19002.508933                       # average overall miss latency
system.l2cache.overall_avg_miss_latency::.cpu.data 30457.677075                       # average overall miss latency
system.l2cache.overall_avg_miss_latency::total 26136.404050                       # average overall miss latency
system.l2cache.blocked_cycles::no_mshrs             0                       # number of cycles access was blocked
system.l2cache.blocked_cycles::no_targets            0                       # number of cycles access was blocked
system.l2cache.blocked::no_mshrs                    0                       # number of cycles access was blocked
system.l2cache.blocked::no_targets                  0                       # number of cycles access was blocked
system.l2cache.avg_blocked_cycles::no_mshrs          nan                       # average number of cycles each access was blocked
system.l2cache.avg_blocked_cycles::no_targets          nan                       # average number of cycles each access was blocked
system.l2cache.writebacks::.writebacks          11882                       # number of writebacks
system.l2cache.writebacks::total                11882                       # number of writebacks
system.l2cache.demand_mshr_misses::.cpu.inst        26306                       # number of demand (read+write) MSHR misses
system.l2cache.demand_mshr_misses::.cpu.data        43428                       # number of demand (read+write) MSHR misses
system.l2cache.demand_mshr_misses::total        69734                       # number of demand (read+write) MSHR misses
system.l2cache.overall_mshr_misses::.cpu.inst        26306                       # number of overall MSHR misses
system.l2cache.overall_mshr_misses::.cpu.data        43428                       # number of overall MSHR misses
system.l2cache.overall_mshr_misses::total        69734                       # number of overall MSHR misses
system.l2cache.demand_mshr_miss_latency::.cpu.inst    447268000                       # number of demand (read+write) MSHR miss cycles
system.l2cache.demand_mshr_miss_latency::.cpu.data   1235860000                       # number of demand (read+write) MSHR miss cycles
system.l2cache.demand_mshr_miss_latency::total   1683128000                       # number of demand (read+write) MSHR miss cycles
system.l2cache.overall_mshr_miss_latency::.cpu.inst    447268000                       # number of overall MSHR miss cycles
system.l2cache.overall_mshr_miss_latency::.cpu.data   1235860000                       # number of overall MSHR miss cycles
system.l2cache.overall_mshr_miss_latency::total   1683128000                       # number of overall MSHR miss cycles
system.l2cache.demand_mshr_miss_rate::.cpu.inst     0.693066                       # mshr miss rate for demand accesses
system.l2cache.demand_mshr_miss_rate::.cpu.data     0.767103                       # mshr miss rate for demand accesses
system.l2cache.demand_mshr_miss_rate::total     0.737388                       # mshr miss rate for demand accesses
system.l2cache.overall_mshr_miss_rate::.cpu.inst     0.693066                       # mshr miss rate for overall accesses
system.l2cache.overall_mshr_miss_rate::.cpu.data     0.767103                       # mshr miss rate for overall accesses
system.l2cache.overall_mshr_miss_rate::total     0.737388                       # mshr miss rate for overall accesses
system.l2cache.demand_avg_mshr_miss_latency::.cpu.inst 17002.508933                       # average overall mshr miss latency
system.l2cache.demand_avg_mshr_miss_latency::.cpu.data 28457.677075                       # average overall mshr miss latency
system.l2cache.demand_avg_mshr_miss_latency::total 24136.404050                       # average overall mshr miss latency
system.l2cache.overall_avg_mshr_miss_latency::.cpu.inst 17002.508933                       # average overall mshr miss latency
system.l2cache.overall_avg_mshr_miss_latency::.cpu.data 28457.677075                       # average overall mshr miss latency
system.l2cache.overall_avg_mshr_miss_latency::total 24136.404050                       # average overall mshr miss latency
system.l2cache.replacements                     77993                       # number of replacements
system.l2cache.ReadReq_hits::.cpu.inst          11650                       # number of ReadReq hits
system.l2cache.ReadReq_hits::.cpu.data          13185                       # number of ReadReq hits
system.l2cache.ReadReq_hits::total              24835                       # number of ReadReq hits
system.l2cache.ReadReq_misses::.cpu.inst        26306                       # number of ReadReq misses
system.l2cache.ReadReq_misses::.cpu.data        43428                       # number of ReadReq misses
system.l2cache.ReadReq_misses::total            69734                       # number of ReadReq misses
system.l2cache.ReadReq_miss_latency::.cpu.inst    499880000                       # number of ReadReq miss cycles
system.l2cache.ReadReq_miss_latency::.cpu.data   1322716000                       # number of ReadReq miss cycles
system.l2cache.ReadReq_miss_latency::total   1822596000                       # number of ReadReq miss cycles
system.l2cache.ReadReq_accesses::.cpu.inst        37956                       # number of ReadReq accesses(hits+misses)
system.l2cache.ReadReq_accesses::.cpu.data        56613                       # number of ReadReq accesses(hits+misses)
system.l2cache.ReadReq_accesses::total          94569                       # number of ReadReq accesses(hits+misses)
system.l2cache.ReadReq_miss_rate::.cpu.inst     0.693066                       # miss rate for ReadReq accesses
system.l2cache.ReadReq_miss_rate::.cpu.data     0.767103                       # miss rate for ReadReq accesses
system.l2cache.ReadReq_miss_rate::total      0.737388                       # miss rate for ReadReq accesses
system.l2cache.ReadReq_avg_miss_latency::.cpu.inst 19002.508933                       # average ReadReq miss latency
system.l2cache.ReadReq_avg_miss_latency::.cpu.data 30457.677075                       # average ReadReq miss latency
system.l2cache.ReadReq_avg_miss_latency::total 26136.404050                       # average ReadReq miss latency
system.l2cache.ReadReq_mshr_misses::.cpu.inst        26306                       # number of ReadReq MSHR misses
system.l2cache.ReadReq_mshr_misses::.cpu.data        43428                       # number of ReadReq MSHR misses
system.l2cache.ReadReq_mshr_misses::total        69734                       # number of ReadReq MSHR misses
system.l2cache.ReadReq_mshr_miss_latency::.cpu.inst    447268000                       # number of ReadReq MSHR miss cycles
system.l2cache.ReadReq_mshr_miss_latency::.cpu.data   1235860000                       # number of ReadReq MSHR miss cycles
system.l2cache.ReadReq_mshr_miss_latency::total   1683128000                       # number of ReadReq MSHR miss cycles
system.l2cache.ReadReq_mshr_miss_rate::.cpu.inst     0.693066                       # mshr miss rate for ReadReq accesses
system.l2cache.ReadReq_mshr_miss_rate::.cpu.data     0.767103                       # mshr miss rate for ReadReq accesses
system.l2cache.ReadReq_mshr_miss_rate::total     0.737388                       # mshr miss rate for ReadReq accesses
system.l2cache.ReadReq_avg_mshr_miss_latency::.cpu.inst 17002.508933                       # average ReadReq mshr miss latency
system.l2cache.ReadReq_avg_mshr_miss_latency::.cpu.data 28457.677075                       # average ReadReq mshr miss latency
system.l2cache.ReadReq_avg_mshr_miss_latency::total 24136.404050                       # average ReadReq mshr miss latency
system.l2cache.WritebackDirty_hits::.writebacks        15155                       # number of WritebackDirty hits
system.l2cache.WritebackDirty_hits::total        15155                       # number of WritebackDirty hits
system.l2cache.WritebackDirty_accesses::.writebacks        15155                       # number of WritebackDirty accesses(hits+misses)
system.l2cache.WritebackDirty_accesses::total        15155                       # number of WritebackDirty accesses(hits+misses)
system.l2cache.power_state.pwrStateResidencyTicks::UNDEFINED  24502654000                       # Cumulative time (in ticks) in various power states
system.l2cache.tags.tagsinuse              510.376807                       # Cycle average of tags in use
system.l2cache.tags.total_refs                 109724                       # Total number of references to valid blocks.
system.l2cache.tags.sampled_refs                78505                       # Sample count of references to valid blocks.
system.l2cache.tags.avg_refs                 1.397669                       # Average number of references to valid blocks.
system.l2cache.tags.warmup_cycle                78000                       # Cycle when the warmup percentage was hit.
system.l2cache.tags.occ_blocks::.writebacks    69.721772                       # Average occupied blocks per requestor
system.l2cache.tags.occ_blocks::.cpu.inst    51.058442                       # Average occupied blocks per requestor
system.l2cache.tags.occ_blocks::.cpu.data   389.596593                       # Average occupied blocks per requestor
system.l2cache.tags.occ_percent::.writebacks     0.136175                       # Average percentage of cache occupancy
system.l2cache.tags.occ_percent::.cpu.inst     0.099724                       # Average percentage of cache occupancy
system.l2cache.tags.occ_percent::.cpu.data     0.760931                       # Average percentage of cache occupancy
system.l2cache.tags.occ_percent::total       0.996830                       # Average percentage of cache occupancy
system.l2cache.tags.occ_task_id_blocks::1024          512                       # Occupied blocks per task id
system.l2cache.tags.age_task_id_blocks_1024::0           30                       # Occupied blocks per task id
system.l2cache.tags.age_task_id_blocks_1024::1          230                       # Occupied blocks per task id
system.l2cache.tags.age_task_id_blocks_1024::2          252                       # Occupied blocks per task id
system.l2cache.tags.occ_task_id_percent::1024            1                       # Percentage of cache occupancy per task id
system.l2cache.tags.tag_accesses               188229                       # Number of tag accesses
system.l2cache.tags.data_accesses              188229                       # Number of data accesses
system.l2cache.tags.power_state.pwrStateResidencyTicks::UNDEFINED  24502654000                       # Cumulative time (in ticks) in various power states
system.l2bar.trans_dist::ReadReq                94569                       # Transaction distribution
system.l2bar.trans_dist::ReadResp               94569                       # Transaction distribution
system.l2bar.trans_dist::WritebackDirty         15155                       # Transaction distribution
system.l2bar.pkt_count_system.dcache.mem_side::system.l2cache.cpu_side       128381                       # Packet count per connected master and slave (bytes)
system.l2bar.pkt_count_system.icache.mem_side::system.l2cache.cpu_side        75912                       # Packet count per connected master and slave (bytes)
system.l2bar.pkt_count::total                  204293                       # Packet count per connected master and slave (bytes)
system.l2bar.pkt_size_system.dcache.mem_side::system.l2cache.cpu_side      4593152                       # Cumulative packet size per connected master and slave (bytes)
system.l2bar.pkt_size_system.icache.mem_side::system.l2cache.cpu_side      2429184                       # Cumulative packet size per connected master and slave (bytes)
system.l2bar.pkt_size::total                  7022336                       # Cumulative packet size per connected master and slave (bytes)
system.l2bar.respLayer1.occupancy           189780000                       # Layer occupancy (ticks)
system.l2bar.respLayer1.utilization               0.8                       # Layer utilization (%)
system.l2bar.reqLayer0.occupancy            170344000                       # Layer occupancy (ticks)
system.l2bar.reqLayer0.utilization                0.7                       # Layer utilization (%)
system.l2bar.respLayer0.occupancy           283065000                       # Layer occupancy (ticks)
system.l2bar.respLayer0.utilization               1.2                       # Layer utilization (%)
system.l2bar.power_state.pwrStateResidencyTicks::UNDEFINED  24502654000                       # Cumulative time (in ticks) in various power states
system.cpu.dtb.walker.power_state.pwrStateResidencyTicks::UNDEFINED  24502654000                       # Cumulative time (in ticks) in various power states
system.cpu.interrupts.clk_domain.clock          16000                       # Clock period in ticks
system.cpu.itb.walker.power_state.pwrStateResidencyTicks::UNDEFINED  24502654000                       # Cumulative time (in ticks) in various power states
system.cpu.power_state.numTransitions               1                       # Number of power state transitions
system.cpu.power_state.pwrStateResidencyTicks::ON  24502654000                       # Cumulative time (in ticks) in various power states

---------- End Simulation Statistics   ----------
