
---------- Begin Simulation Statistics ----------
final_tick                               164759932000                       # Number of ticks from beginning of simulation (restored from checkpoints and never reset)
host_inst_rate                                 222608                       # Simulator instruction rate (inst/s)
host_mem_usage                                 737636                       # Number of bytes of host memory used
host_op_rate                                   416734                       # Simulator op (including micro ops) rate (op/s)
host_seconds                                     8.98                       # Real time elapsed on the host
host_tick_rate                            18338124848                       # Simulator tick rate (ticks/s)
sim_freq                                 1000000000000                       # Frequency of simulated ticks
sim_insts                                     2000000                       # Number of instructions simulated
sim_ops                                       3744159                       # Number of ops (including micro ops) simulated
sim_seconds                                  0.164760                       # Number of seconds simulated
sim_ticks                                164759932000                       # Number of ticks simulated
system.cachebus.snoop_filter.hit_multi_requests            0                       # Number of requests hitting in the snoop filter with multiple (>1) holders of the requested data.
system.cachebus.snoop_filter.hit_multi_snoops            0                       # Number of snoops hitting in the snoop filter with multiple (>1) holders of the requested data.
system.cachebus.snoop_filter.hit_single_requests            0                       # Number of requests hitting in the snoop filter with a single holder of the requested data.
system.cachebus.snoop_filter.hit_single_snoops            0                       # Number of snoops hitting in the snoop filter with a single holder of the requested data.
system.cachebus.snoop_filter.tot_requests            0                       # Total number of requests made to the snoop filter.
system.cachebus.snoop_filter.tot_snoops             0                       # Total number of snoops made to the snoop filter.
system.cpu.Branches                            445430                       # Number of branches fetched
system.cpu.committedInsts                     2000000                       # Number of instructions committed
system.cpu.committedOps                       3744159                       # Number of ops (including micro ops) committed
system.cpu.dtb.rdAccesses                      468043                       # TLB accesses on read requests
system.cpu.dtb.rdMisses                            72                       # TLB misses on read requests
system.cpu.dtb.wrAccesses                      271389                       # TLB accesses on write requests
system.cpu.dtb.wrMisses                            68                       # TLB misses on write requests
system.cpu.idle_fraction                            0                       # Percentage of idle cycles
system.cpu.itb.rdAccesses                           0                       # TLB accesses on read requests
system.cpu.itb.rdMisses                             0                       # TLB misses on read requests
system.cpu.itb.wrAccesses                     2600900                       # TLB accesses on write requests
system.cpu.itb.wrMisses                           158                       # TLB misses on write requests
system.cpu.not_idle_fraction                        1                       # Percentage of non-idle cycles
system.cpu.numCycles                        164759932                       # number of cpu cycles simulated
system.cpu.numWorkItemsCompleted                    0                       # number of work items this cpu completed
system.cpu.numWorkItemsStarted                      0                       # number of work items this cpu started
system.cpu.num_busy_cycles                  164759932                       # Number of busy cycles
system.cpu.num_cc_register_reads              2296439                       # number of times the CC registers were read
system.cpu.num_cc_register_writes             1246242                       # number of times the CC registers were written
system.cpu.num_conditional_control_insts       334537                       # number of instructions that are conditional controls
system.cpu.num_fp_alu_accesses                  40540                       # Number of float alu accesses
system.cpu.num_fp_insts                         40540                       # number of float instructions
system.cpu.num_fp_register_reads                64927                       # number of times the floating registers were read
system.cpu.num_fp_register_writes               32124                       # number of times the floating registers were written
system.cpu.num_func_calls                       71290                       # number of times a function call or return occured
system.cpu.num_idle_cycles                          0                       # Number of idle cycles
system.cpu.num_int_alu_accesses               3705523                       # Number of integer alu accesses
system.cpu.num_int_insts                      3705523                       # number of integer instructions
system.cpu.num_int_register_reads             7294243                       # number of times the integer registers were read
system.cpu.num_int_register_writes            2987340                       # number of times the integer registers were written
system.cpu.num_load_insts                      467611                       # Number of load instructions
system.cpu.num_mem_refs                        738864                       # number of memory refs
system.cpu.num_store_insts                     271253                       # Number of store instructions
system.cpu.num_vec_alu_accesses                     0                       # Number of vector alu accesses
system.cpu.num_vec_insts                            0                       # number of vector instructions
system.cpu.num_vec_register_reads                   0                       # number of times the vector registers were read
system.cpu.num_vec_register_writes                  0                       # number of times the vector registers were written
system.cpu.op_class::No_OpClass                 12023      0.32%      0.32% # Class of executed instruction
system.cpu.op_class::IntAlu                   2961532     79.10%     79.42% # Class of executed instruction
system.cpu.op_class::IntMult                      305      0.01%     79.43% # Class of executed instruction
system.cpu.op_class::IntDiv                       315      0.01%     79.43% # Class of executed instruction
system.cpu.op_class::FloatAdd                     151      0.00%     79.44% # Class of executed instruction
system.cpu.op_class::FloatCmp                       0      0.00%     79.44% # Class of executed instruction
system.cpu.op_class::FloatCvt                       0      0.00%     79.44% # Class of executed instruction
system.cpu.op_class::FloatMult                      0      0.00%     79.44% # Class of executed instruction
system.cpu.op_class::FloatMultAcc                   0      0.00%     79.44% # Class of executed instruction
system.cpu.op_class::FloatDiv                       0      0.00%     79.44% # Class of executed instruction
system.cpu.op_class::FloatMisc                      0      0.00%     79.44% # Class of executed instruction
system.cpu.op_class::FloatSqrt                      0      0.00%     79.44% # Class of executed instruction
system.cpu.op_class::SimdAdd                       16      0.00%     79.44% # Class of executed instruction
system.cpu.op_class::SimdAddAcc                     0      0.00%     79.44% # Class of executed instruction
system.cpu.op_class::SimdAlu                    14440      0.39%     79.82% # Class of executed instruction
system.cpu.op_class::SimdCmp                      288      0.01%     79.83% # Class of executed instruction
system.cpu.op_class::SimdCvt                     7956      0.21%     80.04% # Class of executed instruction
system.cpu.op_class::SimdMisc                    8242      0.22%     80.26% # Class of executed instruction
system.cpu.op_class::SimdMult                       0      0.00%     80.26% # Class of executed instruction
system.cpu.op_class::SimdMultAcc                    0      0.00%     80.26% # Class of executed instruction
system.cpu.op_class::SimdShift                      0      0.00%     80.26% # Class of executed instruction
system.cpu.op_class::SimdShiftAcc                   0      0.00%     80.26% # Class of executed instruction
system.cpu.op_class::SimdDiv                        0      0.00%     80.26% # Class of executed instruction
system.cpu.op_class::SimdSqrt                       0      0.00%     80.26% # Class of executed instruction
system.cpu.op_class::SimdFloatAdd                   0      0.00%     80.26% # Class of executed instruction
system.cpu.op_class::SimdFloatAlu                   0      0.00%     80.26% # Class of executed instruction
system.cpu.op_class::SimdFloatCmp                   0      0.00%     80.26% # Class of executed instruction
system.cpu.op_class::SimdFloatCvt                  57      0.00%     80.27% # Class of executed instruction
system.cpu.op_class::SimdFloatDiv                   0      0.00%     80.27% # Class of executed instruction
system.cpu.op_class::SimdFloatMisc                  0      0.00%     80.27% # Class of executed instruction
system.cpu.op_class::SimdFloatMult                  0      0.00%     80.27% # Class of executed instruction
system.cpu.op_class::SimdFloatMultAcc               0      0.00%     80.27% # Class of executed instruction
system.cpu.op_class::SimdFloatSqrt                  0      0.00%     80.27% # Class of executed instruction
system.cpu.op_class::SimdReduceAdd                  0      0.00%     80.27% # Class of executed instruction
system.cpu.op_class::SimdReduceAlu                  0      0.00%     80.27% # Class of executed instruction
system.cpu.op_class::SimdReduceCmp                  0      0.00%     80.27% # Class of executed instruction
system.cpu.op_class::SimdFloatReduceAdd             0      0.00%     80.27% # Class of executed instruction
system.cpu.op_class::SimdFloatReduceCmp             0      0.00%     80.27% # Class of executed instruction
system.cpu.op_class::SimdAes                        0      0.00%     80.27% # Class of executed instruction
system.cpu.op_class::SimdAesMix                     0      0.00%     80.27% # Class of executed instruction
system.cpu.op_class::SimdSha1Hash                   0      0.00%     80.27% # Class of executed instruction
system.cpu.op_class::SimdSha1Hash2                  0      0.00%     80.27% # Class of executed instruction
system.cpu.op_class::SimdSha256Hash                 0      0.00%     80.27% # Class of executed instruction
system.cpu.op_class::SimdSha256Hash2                0      0.00%     80.27% # Class of executed instruction
system.cpu.op_class::SimdShaSigma2                  0      0.00%     80.27% # Class of executed instruction
system.cpu.op_class::SimdShaSigma3                  0      0.00%     80.27% # Class of executed instruction
system.cpu.op_class::SimdPredAlu                    0      0.00%     80.27% # Class of executed instruction
system.cpu.op_class::MemRead                   459796     12.28%     92.55% # Class of executed instruction
system.cpu.op_class::MemWrite                  270282      7.22%     99.77% # Class of executed instruction
system.cpu.op_class::FloatMemRead                7815      0.21%     99.97% # Class of executed instruction
system.cpu.op_class::FloatMemWrite                971      0.03%    100.00% # Class of executed instruction
system.cpu.op_class::IprAccess                      0      0.00%    100.00% # Class of executed instruction
system.cpu.op_class::InstPrefetch                   0      0.00%    100.00% # Class of executed instruction
system.cpu.op_class::total                    3744189                       # Class of executed instruction
system.cpu.workload.numSyscalls                    11                       # Number of system calls
system.membus.snoop_filter.hit_multi_requests            0                       # Number of requests hitting in the snoop filter with multiple (>1) holders of the requested data.
system.membus.snoop_filter.hit_multi_snoops            0                       # Number of snoops hitting in the snoop filter with multiple (>1) holders of the requested data.
system.membus.snoop_filter.hit_single_requests            0                       # Number of requests hitting in the snoop filter with a single holder of the requested data.
system.membus.snoop_filter.hit_single_snoops            0                       # Number of snoops hitting in the snoop filter with a single holder of the requested data.
system.membus.snoop_filter.tot_requests             0                       # Total number of requests made to the snoop filter.
system.membus.snoop_filter.tot_snoops               0                       # Total number of snoops made to the snoop filter.
system.membus.trans_dist::ReadReq             3068868                       # Transaction distribution
system.membus.trans_dist::ReadResp            3068867                       # Transaction distribution
system.membus.trans_dist::WriteReq             271359                       # Transaction distribution
system.membus.trans_dist::WriteResp            271359                       # Transaction distribution
system.membus.trans_dist::SoftPFReq                75                       # Transaction distribution
system.membus.trans_dist::SoftPFResp               75                       # Transaction distribution
system.membus.pkt_count_system.cpu.icache_port::system.mem_ctrl.port      5201799                       # Packet count per connected master and slave (bytes)
system.membus.pkt_count_system.cpu.icache_port::total      5201799                       # Packet count per connected master and slave (bytes)
system.membus.pkt_count_system.memobj.mem_side::system.mem_ctrl.port      1478804                       # Packet count per connected master and slave (bytes)
system.membus.pkt_count_system.memobj.mem_side::total      1478804                       # Packet count per connected master and slave (bytes)
system.membus.pkt_count::total                6680603                       # Packet count per connected master and slave (bytes)
system.membus.pkt_size_system.cpu.icache_port::system.mem_ctrl.port     20807192                       # Cumulative packet size per connected master and slave (bytes)
system.membus.pkt_size_system.cpu.icache_port::total     20807192                       # Cumulative packet size per connected master and slave (bytes)
system.membus.pkt_size_system.memobj.mem_side::system.mem_ctrl.port      4522067                       # Cumulative packet size per connected master and slave (bytes)
system.membus.pkt_size_system.memobj.mem_side::total      4522067                       # Cumulative packet size per connected master and slave (bytes)
system.membus.pkt_size::total                25329259                       # Cumulative packet size per connected master and slave (bytes)
system.membus.snoops                                0                       # Total snoops (count)
system.membus.snoopTraffic                          0                       # Total snoop traffic (bytes)
system.membus.snoop_fanout::samples           3340302                       # Request fanout histogram
system.membus.snoop_fanout::mean                    0                       # Request fanout histogram
system.membus.snoop_fanout::stdev                   0                       # Request fanout histogram
system.membus.snoop_fanout::underflows              0      0.00%      0.00% # Request fanout histogram
system.membus.snoop_fanout::0                 3340302    100.00%    100.00% # Request fanout histogram
system.membus.snoop_fanout::1                       0      0.00%    100.00% # Request fanout histogram
system.membus.snoop_fanout::overflows               0      0.00%    100.00% # Request fanout histogram
system.membus.snoop_fanout::min_value               0                       # Request fanout histogram
system.membus.snoop_fanout::max_value               0                       # Request fanout histogram
system.membus.snoop_fanout::total             3340302                       # Request fanout histogram
system.membus.reqLayer2.occupancy          3611661000                       # Layer occupancy (ticks)
system.membus.reqLayer2.utilization               2.2                       # Layer utilization (%)
system.membus.respLayer1.occupancy         1346088500                       # Layer occupancy (ticks)
system.membus.respLayer1.utilization              0.8                       # Layer utilization (%)
system.membus.respLayer0.occupancy         5902704250                       # Layer occupancy (ticks)
system.membus.respLayer0.utilization              3.6                       # Layer utilization (%)
system.membus.power_state.pwrStateResidencyTicks::UNDEFINED 164759932000                       # Cumulative time (in ticks) in various power states
system.mem_ctrl.bytes_read::.cpu.inst        20807192                       # Number of bytes read from this memory
system.mem_ctrl.bytes_read::.cpu.data         2687454                       # Number of bytes read from this memory
system.mem_ctrl.bytes_read::total            23494646                       # Number of bytes read from this memory
system.mem_ctrl.bytes_inst_read::.cpu.inst     20807192                       # Number of instructions bytes read from this memory
system.mem_ctrl.bytes_inst_read::total       20807192                       # Number of instructions bytes read from this memory
system.mem_ctrl.bytes_written::.cpu.data      1834613                       # Number of bytes written to this memory
system.mem_ctrl.bytes_written::total          1834613                       # Number of bytes written to this memory
system.mem_ctrl.num_reads::.cpu.inst          2600899                       # Number of read requests responded to by this memory
system.mem_ctrl.num_reads::.cpu.data           468043                       # Number of read requests responded to by this memory
system.mem_ctrl.num_reads::total              3068942                       # Number of read requests responded to by this memory
system.mem_ctrl.num_writes::.cpu.data          271359                       # Number of write requests responded to by this memory
system.mem_ctrl.num_writes::total              271359                       # Number of write requests responded to by this memory
system.mem_ctrl.bw_read::.cpu.inst          126287938                       # Total read bandwidth from this memory (bytes/s)
system.mem_ctrl.bw_read::.cpu.data           16311332                       # Total read bandwidth from this memory (bytes/s)
system.mem_ctrl.bw_read::total              142599270                       # Total read bandwidth from this memory (bytes/s)
system.mem_ctrl.bw_inst_read::.cpu.inst     126287938                       # Instruction read bandwidth from this memory (bytes/s)
system.mem_ctrl.bw_inst_read::total         126287938                       # Instruction read bandwidth from this memory (bytes/s)
system.mem_ctrl.bw_write::.cpu.data          11135068                       # Write bandwidth from this memory (bytes/s)
system.mem_ctrl.bw_write::total              11135068                       # Write bandwidth from this memory (bytes/s)
system.mem_ctrl.bw_total::.cpu.inst         126287938                       # Total bandwidth to/from this memory (bytes/s)
system.mem_ctrl.bw_total::.cpu.data          27446400                       # Total bandwidth to/from this memory (bytes/s)
system.mem_ctrl.bw_total::total             153734338                       # Total bandwidth to/from this memory (bytes/s)
system.mem_ctrl.avgPriority_.cpu.inst::samples   2600900.00                       # Average QoS priority value for accepted requests
system.mem_ctrl.avgPriority_.cpu.data::samples    427659.00                       # Average QoS priority value for accepted requests
system.mem_ctrl.priorityMinLatency       0.000000018750                       # per QoS priority minimum request to response latency (s)
system.mem_ctrl.priorityMaxLatency       0.009115104500                       # per QoS priority maximum request to response latency (s)
system.mem_ctrl.numReadWriteTurnArounds           731                       # Number of turnarounds from READ to WRITE
system.mem_ctrl.numWriteReadTurnArounds           731                       # Number of turnarounds from WRITE to READ
system.mem_ctrl.numStayReadState              6346438                       # Number of times bus staying in READ state
system.mem_ctrl.numStayWriteState               11016                       # Number of times bus staying in WRITE state
system.mem_ctrl.readReqs                      3068943                       # Number of read requests accepted
system.mem_ctrl.writeReqs                      271359                       # Number of write requests accepted
system.mem_ctrl.readBursts                    3068943                       # Number of DRAM read bursts, including those serviced by the write queue
system.mem_ctrl.writeBursts                    271359                       # Number of DRAM write bursts, including those merged in the write queue
system.mem_ctrl.servicedByWrQ                   52149                       # Number of DRAM read bursts serviced by the write queue
system.mem_ctrl.mergedWrBursts                 259594                       # Number of DRAM write bursts merged with an existing one
system.mem_ctrl.neitherReadNorWriteReqs             0                       # Number of requests that are neither read nor write
system.mem_ctrl.perBankRdBursts::0              82875                       # Per bank write bursts
system.mem_ctrl.perBankRdBursts::1             206849                       # Per bank write bursts
system.mem_ctrl.perBankRdBursts::2             213563                       # Per bank write bursts
system.mem_ctrl.perBankRdBursts::3             226579                       # Per bank write bursts
system.mem_ctrl.perBankRdBursts::4              62975                       # Per bank write bursts
system.mem_ctrl.perBankRdBursts::5              27163                       # Per bank write bursts
system.mem_ctrl.perBankRdBursts::6             166144                       # Per bank write bursts
system.mem_ctrl.perBankRdBursts::7             130792                       # Per bank write bursts
system.mem_ctrl.perBankRdBursts::8             523359                       # Per bank write bursts
system.mem_ctrl.perBankRdBursts::9             146483                       # Per bank write bursts
system.mem_ctrl.perBankRdBursts::10             25811                       # Per bank write bursts
system.mem_ctrl.perBankRdBursts::11             54514                       # Per bank write bursts
system.mem_ctrl.perBankRdBursts::12            113706                       # Per bank write bursts
system.mem_ctrl.perBankRdBursts::13            678131                       # Per bank write bursts
system.mem_ctrl.perBankRdBursts::14            304554                       # Per bank write bursts
system.mem_ctrl.perBankRdBursts::15             53296                       # Per bank write bursts
system.mem_ctrl.perBankWrBursts::0                284                       # Per bank write bursts
system.mem_ctrl.perBankWrBursts::1                475                       # Per bank write bursts
system.mem_ctrl.perBankWrBursts::2               1765                       # Per bank write bursts
system.mem_ctrl.perBankWrBursts::3                280                       # Per bank write bursts
system.mem_ctrl.perBankWrBursts::4               1011                       # Per bank write bursts
system.mem_ctrl.perBankWrBursts::5                859                       # Per bank write bursts
system.mem_ctrl.perBankWrBursts::6               5048                       # Per bank write bursts
system.mem_ctrl.perBankWrBursts::7                 20                       # Per bank write bursts
system.mem_ctrl.perBankWrBursts::8                211                       # Per bank write bursts
system.mem_ctrl.perBankWrBursts::9                156                       # Per bank write bursts
system.mem_ctrl.perBankWrBursts::10                92                       # Per bank write bursts
system.mem_ctrl.perBankWrBursts::11               150                       # Per bank write bursts
system.mem_ctrl.perBankWrBursts::12               151                       # Per bank write bursts
system.mem_ctrl.perBankWrBursts::13               349                       # Per bank write bursts
system.mem_ctrl.perBankWrBursts::14               544                       # Per bank write bursts
system.mem_ctrl.perBankWrBursts::15               338                       # Per bank write bursts
system.mem_ctrl.avgRdQLen                        1.00                       # Average read queue length when enqueuing
system.mem_ctrl.avgWrQLen                       26.58                       # Average write queue length when enqueuing
system.mem_ctrl.totQLat                   10136584500                       # Total ticks spent queuing
system.mem_ctrl.totBusLat                 15083970000                       # Total ticks spent in databus transfers
system.mem_ctrl.totMemAccLat              66701472000                       # Total ticks spent from burst creation until serviced by the DRAM
system.mem_ctrl.avgQLat                       3360.05                       # Average queueing delay per DRAM burst
system.mem_ctrl.avgBusLat                     5000.00                       # Average bus latency per DRAM burst
system.mem_ctrl.avgMemAccLat                 22110.05                       # Average memory access latency per DRAM burst
system.mem_ctrl.numRdRetry                          0                       # Number of times read queue was full causing retry
system.mem_ctrl.numWrRetry                          0                       # Number of times write queue was full causing retry
system.mem_ctrl.readRowHits                   2711243                       # Number of row buffer hits during reads
system.mem_ctrl.writeRowHits                    10832                       # Number of row buffer hits during writes
system.mem_ctrl.readRowHitRate                  89.87                       # Row buffer hit rate for reads
system.mem_ctrl.writeRowHitRate                 92.07                       # Row buffer hit rate for writes
system.mem_ctrl.readPktSize::0                  89693                       # Read request sizes (log2)
system.mem_ctrl.readPktSize::1                    979                       # Read request sizes (log2)
system.mem_ctrl.readPktSize::2                 105603                       # Read request sizes (log2)
system.mem_ctrl.readPktSize::3                2872668                       # Read request sizes (log2)
system.mem_ctrl.readPktSize::4                      0                       # Read request sizes (log2)
system.mem_ctrl.readPktSize::5                      0                       # Read request sizes (log2)
system.mem_ctrl.readPktSize::6                      0                       # Read request sizes (log2)
system.mem_ctrl.writePktSize::0                 22285                       # Write request sizes (log2)
system.mem_ctrl.writePktSize::1                   820                       # Write request sizes (log2)
system.mem_ctrl.writePktSize::2                 43733                       # Write request sizes (log2)
system.mem_ctrl.writePktSize::3                204521                       # Write request sizes (log2)
system.mem_ctrl.writePktSize::4                     0                       # Write request sizes (log2)
system.mem_ctrl.writePktSize::5                     0                       # Write request sizes (log2)
system.mem_ctrl.writePktSize::6                     0                       # Write request sizes (log2)
system.mem_ctrl.rdQLenPdf::0                  3016363                       # What read queue length does an incoming req see
system.mem_ctrl.rdQLenPdf::1                      431                       # What read queue length does an incoming req see
system.mem_ctrl.rdQLenPdf::2                        0                       # What read queue length does an incoming req see
system.mem_ctrl.rdQLenPdf::3                        0                       # What read queue length does an incoming req see
system.mem_ctrl.rdQLenPdf::4                        0                       # What read queue length does an incoming req see
system.mem_ctrl.rdQLenPdf::5                        0                       # What read queue length does an incoming req see
system.mem_ctrl.rdQLenPdf::6                        0                       # What read queue length does an incoming req see
system.mem_ctrl.rdQLenPdf::7                        0                       # What read queue length does an incoming req see
system.mem_ctrl.rdQLenPdf::8                        0                       # What read queue length does an incoming req see
system.mem_ctrl.rdQLenPdf::9                        0                       # What read queue length does an incoming req see
system.mem_ctrl.rdQLenPdf::10                       0                       # What read queue length does an incoming req see
system.mem_ctrl.rdQLenPdf::11                       0                       # What read queue length does an incoming req see
system.mem_ctrl.rdQLenPdf::12                       0                       # What read queue length does an incoming req see
system.mem_ctrl.rdQLenPdf::13                       0                       # What read queue length does an incoming req see
system.mem_ctrl.rdQLenPdf::14                       0                       # What read queue length does an incoming req see
system.mem_ctrl.rdQLenPdf::15                       0                       # What read queue length does an incoming req see
system.mem_ctrl.rdQLenPdf::16                       0                       # What read queue length does an incoming req see
system.mem_ctrl.rdQLenPdf::17                       0                       # What read queue length does an incoming req see
system.mem_ctrl.rdQLenPdf::18                       0                       # What read queue length does an incoming req see
system.mem_ctrl.rdQLenPdf::19                       0                       # What read queue length does an incoming req see
system.mem_ctrl.rdQLenPdf::20                       0                       # What read queue length does an incoming req see
system.mem_ctrl.rdQLenPdf::21                       0                       # What read queue length does an incoming req see
system.mem_ctrl.rdQLenPdf::22                       0                       # What read queue length does an incoming req see
system.mem_ctrl.rdQLenPdf::23                       0                       # What read queue length does an incoming req see
system.mem_ctrl.rdQLenPdf::24                       0                       # What read queue length does an incoming req see
system.mem_ctrl.rdQLenPdf::25                       0                       # What read queue length does an incoming req see
system.mem_ctrl.rdQLenPdf::26                       0                       # What read queue length does an incoming req see
system.mem_ctrl.rdQLenPdf::27                       0                       # What read queue length does an incoming req see
system.mem_ctrl.rdQLenPdf::28                       0                       # What read queue length does an incoming req see
system.mem_ctrl.rdQLenPdf::29                       0                       # What read queue length does an incoming req see
system.mem_ctrl.rdQLenPdf::30                       0                       # What read queue length does an incoming req see
system.mem_ctrl.rdQLenPdf::31                       0                       # What read queue length does an incoming req see
system.mem_ctrl.wrQLenPdf::0                        1                       # What write queue length does an incoming req see
system.mem_ctrl.wrQLenPdf::1                        1                       # What write queue length does an incoming req see
system.mem_ctrl.wrQLenPdf::2                        1                       # What write queue length does an incoming req see
system.mem_ctrl.wrQLenPdf::3                        1                       # What write queue length does an incoming req see
system.mem_ctrl.wrQLenPdf::4                        1                       # What write queue length does an incoming req see
system.mem_ctrl.wrQLenPdf::5                        1                       # What write queue length does an incoming req see
system.mem_ctrl.wrQLenPdf::6                        1                       # What write queue length does an incoming req see
system.mem_ctrl.wrQLenPdf::7                        1                       # What write queue length does an incoming req see
system.mem_ctrl.wrQLenPdf::8                        1                       # What write queue length does an incoming req see
system.mem_ctrl.wrQLenPdf::9                        1                       # What write queue length does an incoming req see
system.mem_ctrl.wrQLenPdf::10                       1                       # What write queue length does an incoming req see
system.mem_ctrl.wrQLenPdf::11                       1                       # What write queue length does an incoming req see
system.mem_ctrl.wrQLenPdf::12                       1                       # What write queue length does an incoming req see
system.mem_ctrl.wrQLenPdf::13                       1                       # What write queue length does an incoming req see
system.mem_ctrl.wrQLenPdf::14                       1                       # What write queue length does an incoming req see
system.mem_ctrl.wrQLenPdf::15                      17                       # What write queue length does an incoming req see
system.mem_ctrl.wrQLenPdf::16                      17                       # What write queue length does an incoming req see
system.mem_ctrl.wrQLenPdf::17                     733                       # What write queue length does an incoming req see
system.mem_ctrl.wrQLenPdf::18                     732                       # What write queue length does an incoming req see
system.mem_ctrl.wrQLenPdf::19                     734                       # What write queue length does an incoming req see
system.mem_ctrl.wrQLenPdf::20                     732                       # What write queue length does an incoming req see
system.mem_ctrl.wrQLenPdf::21                     734                       # What write queue length does an incoming req see
system.mem_ctrl.wrQLenPdf::22                     732                       # What write queue length does an incoming req see
system.mem_ctrl.wrQLenPdf::23                     732                       # What write queue length does an incoming req see
system.mem_ctrl.wrQLenPdf::24                     732                       # What write queue length does an incoming req see
system.mem_ctrl.wrQLenPdf::25                     732                       # What write queue length does an incoming req see
system.mem_ctrl.wrQLenPdf::26                     732                       # What write queue length does an incoming req see
system.mem_ctrl.wrQLenPdf::27                     732                       # What write queue length does an incoming req see
system.mem_ctrl.wrQLenPdf::28                     732                       # What write queue length does an incoming req see
system.mem_ctrl.wrQLenPdf::29                     732                       # What write queue length does an incoming req see
system.mem_ctrl.wrQLenPdf::30                     732                       # What write queue length does an incoming req see
system.mem_ctrl.wrQLenPdf::31                     732                       # What write queue length does an incoming req see
system.mem_ctrl.wrQLenPdf::32                     731                       # What write queue length does an incoming req see
system.mem_ctrl.wrQLenPdf::33                       0                       # What write queue length does an incoming req see
system.mem_ctrl.wrQLenPdf::34                       0                       # What write queue length does an incoming req see
system.mem_ctrl.wrQLenPdf::35                       0                       # What write queue length does an incoming req see
system.mem_ctrl.wrQLenPdf::36                       0                       # What write queue length does an incoming req see
system.mem_ctrl.wrQLenPdf::37                       0                       # What write queue length does an incoming req see
system.mem_ctrl.wrQLenPdf::38                       0                       # What write queue length does an incoming req see
system.mem_ctrl.wrQLenPdf::39                       0                       # What write queue length does an incoming req see
system.mem_ctrl.wrQLenPdf::40                       0                       # What write queue length does an incoming req see
system.mem_ctrl.wrQLenPdf::41                       0                       # What write queue length does an incoming req see
system.mem_ctrl.wrQLenPdf::42                       0                       # What write queue length does an incoming req see
system.mem_ctrl.wrQLenPdf::43                       0                       # What write queue length does an incoming req see
system.mem_ctrl.wrQLenPdf::44                       0                       # What write queue length does an incoming req see
system.mem_ctrl.wrQLenPdf::45                       0                       # What write queue length does an incoming req see
system.mem_ctrl.wrQLenPdf::46                       0                       # What write queue length does an incoming req see
system.mem_ctrl.wrQLenPdf::47                       0                       # What write queue length does an incoming req see
system.mem_ctrl.wrQLenPdf::48                       0                       # What write queue length does an incoming req see
system.mem_ctrl.wrQLenPdf::49                       0                       # What write queue length does an incoming req see
system.mem_ctrl.wrQLenPdf::50                       0                       # What write queue length does an incoming req see
system.mem_ctrl.wrQLenPdf::51                       0                       # What write queue length does an incoming req see
system.mem_ctrl.wrQLenPdf::52                       0                       # What write queue length does an incoming req see
system.mem_ctrl.wrQLenPdf::53                       0                       # What write queue length does an incoming req see
system.mem_ctrl.wrQLenPdf::54                       0                       # What write queue length does an incoming req see
system.mem_ctrl.wrQLenPdf::55                       0                       # What write queue length does an incoming req see
system.mem_ctrl.wrQLenPdf::56                       0                       # What write queue length does an incoming req see
system.mem_ctrl.wrQLenPdf::57                       0                       # What write queue length does an incoming req see
system.mem_ctrl.wrQLenPdf::58                       0                       # What write queue length does an incoming req see
system.mem_ctrl.wrQLenPdf::59                       0                       # What write queue length does an incoming req see
system.mem_ctrl.wrQLenPdf::60                       0                       # What write queue length does an incoming req see
system.mem_ctrl.wrQLenPdf::61                       0                       # What write queue length does an incoming req see
system.mem_ctrl.wrQLenPdf::62                       0                       # What write queue length does an incoming req see
system.mem_ctrl.wrQLenPdf::63                       0                       # What write queue length does an incoming req see
system.mem_ctrl.bytesPerActivate::samples       306449                       # Bytes accessed per row activation
system.mem_ctrl.bytesPerActivate::mean     632.485797                       # Bytes accessed per row activation
system.mem_ctrl.bytesPerActivate::gmean    430.701070                       # Bytes accessed per row activation
system.mem_ctrl.bytesPerActivate::stdev    402.866349                       # Bytes accessed per row activation
system.mem_ctrl.bytesPerActivate::0-127         43557     14.21%     14.21% # Bytes accessed per row activation
system.mem_ctrl.bytesPerActivate::128-255        42186     13.77%     27.98% # Bytes accessed per row activation
system.mem_ctrl.bytesPerActivate::256-383        23110      7.54%     35.52% # Bytes accessed per row activation
system.mem_ctrl.bytesPerActivate::384-511        15666      5.11%     40.63% # Bytes accessed per row activation
system.mem_ctrl.bytesPerActivate::512-639        15401      5.03%     45.66% # Bytes accessed per row activation
system.mem_ctrl.bytesPerActivate::640-767         9383      3.06%     48.72% # Bytes accessed per row activation
system.mem_ctrl.bytesPerActivate::768-895        11746      3.83%     52.55% # Bytes accessed per row activation
system.mem_ctrl.bytesPerActivate::896-1023        10772      3.52%     56.07% # Bytes accessed per row activation
system.mem_ctrl.bytesPerActivate::1024-1151       134628     43.93%    100.00% # Bytes accessed per row activation
system.mem_ctrl.bytesPerActivate::total        306449                       # Bytes accessed per row activation
system.mem_ctrl.rdPerTurnAround::samples          731                       # Reads before turning the bus around for writes
system.mem_ctrl.rdPerTurnAround::mean     4124.146375                       # Reads before turning the bus around for writes
system.mem_ctrl.rdPerTurnAround::gmean    2794.107332                       # Reads before turning the bus around for writes
system.mem_ctrl.rdPerTurnAround::stdev    3952.602974                       # Reads before turning the bus around for writes
system.mem_ctrl.rdPerTurnAround::0-1023           115     15.73%     15.73% # Reads before turning the bus around for writes
system.mem_ctrl.rdPerTurnAround::1024-2047          164     22.44%     38.17% # Reads before turning the bus around for writes
system.mem_ctrl.rdPerTurnAround::2048-3071          116     15.87%     54.04% # Reads before turning the bus around for writes
system.mem_ctrl.rdPerTurnAround::3072-4095           98     13.41%     67.44% # Reads before turning the bus around for writes
system.mem_ctrl.rdPerTurnAround::4096-5119           38      5.20%     72.64% # Reads before turning the bus around for writes
system.mem_ctrl.rdPerTurnAround::5120-6143           39      5.34%     77.98% # Reads before turning the bus around for writes
system.mem_ctrl.rdPerTurnAround::6144-7167           31      4.24%     82.22% # Reads before turning the bus around for writes
system.mem_ctrl.rdPerTurnAround::7168-8191           28      3.83%     86.05% # Reads before turning the bus around for writes
system.mem_ctrl.rdPerTurnAround::8192-9215           31      4.24%     90.29% # Reads before turning the bus around for writes
system.mem_ctrl.rdPerTurnAround::9216-10239           19      2.60%     92.89% # Reads before turning the bus around for writes
system.mem_ctrl.rdPerTurnAround::10240-11263           17      2.33%     95.21% # Reads before turning the bus around for writes
system.mem_ctrl.rdPerTurnAround::11264-12287            4      0.55%     95.76% # Reads before turning the bus around for writes
system.mem_ctrl.rdPerTurnAround::12288-13311            8      1.09%     96.85% # Reads before turning the bus around for writes
system.mem_ctrl.rdPerTurnAround::13312-14335            4      0.55%     97.40% # Reads before turning the bus around for writes
system.mem_ctrl.rdPerTurnAround::14336-15359            1      0.14%     97.54% # Reads before turning the bus around for writes
system.mem_ctrl.rdPerTurnAround::15360-16383            2      0.27%     97.81% # Reads before turning the bus around for writes
system.mem_ctrl.rdPerTurnAround::16384-17407            1      0.14%     97.95% # Reads before turning the bus around for writes
system.mem_ctrl.rdPerTurnAround::17408-18431            4      0.55%     98.50% # Reads before turning the bus around for writes
system.mem_ctrl.rdPerTurnAround::18432-19455            2      0.27%     98.77% # Reads before turning the bus around for writes
system.mem_ctrl.rdPerTurnAround::19456-20479            2      0.27%     99.04% # Reads before turning the bus around for writes
system.mem_ctrl.rdPerTurnAround::20480-21503            1      0.14%     99.18% # Reads before turning the bus around for writes
system.mem_ctrl.rdPerTurnAround::21504-22527            2      0.27%     99.45% # Reads before turning the bus around for writes
system.mem_ctrl.rdPerTurnAround::22528-23551            1      0.14%     99.59% # Reads before turning the bus around for writes
system.mem_ctrl.rdPerTurnAround::23552-24575            1      0.14%     99.73% # Reads before turning the bus around for writes
system.mem_ctrl.rdPerTurnAround::24576-25599            1      0.14%     99.86% # Reads before turning the bus around for writes
system.mem_ctrl.rdPerTurnAround::25600-26623            1      0.14%    100.00% # Reads before turning the bus around for writes
system.mem_ctrl.rdPerTurnAround::total            731                       # Reads before turning the bus around for writes
system.mem_ctrl.wrPerTurnAround::samples          731                       # Writes before turning the bus around for reads
system.mem_ctrl.wrPerTurnAround::mean       16.050616                       # Writes before turning the bus around for reads
system.mem_ctrl.wrPerTurnAround::gmean      16.047113                       # Writes before turning the bus around for reads
system.mem_ctrl.wrPerTurnAround::stdev       0.353315                       # Writes before turning the bus around for reads
system.mem_ctrl.wrPerTurnAround::16               715     97.81%     97.81% # Writes before turning the bus around for reads
system.mem_ctrl.wrPerTurnAround::18                13      1.78%     99.59% # Writes before turning the bus around for reads
system.mem_ctrl.wrPerTurnAround::19                 1      0.14%     99.73% # Writes before turning the bus around for reads
system.mem_ctrl.wrPerTurnAround::20                 2      0.27%    100.00% # Writes before turning the bus around for reads
system.mem_ctrl.wrPerTurnAround::total            731                       # Writes before turning the bus around for reads
system.mem_ctrl.bytesReadDRAM               193074816                       # Total number of bytes read from DRAM
system.mem_ctrl.bytesReadWrQ                  3337536                       # Total number of bytes read from write queue
system.mem_ctrl.bytesWritten                   750912                       # Total number of bytes written to DRAM
system.mem_ctrl.bytesReadSys                 23494654                       # Total read bytes from the system interface side
system.mem_ctrl.bytesWrittenSys               1834613                       # Total written bytes from the system interface side
system.mem_ctrl.avgRdBW                       1171.86                       # Average DRAM read bandwidth in MiByte/s
system.mem_ctrl.avgWrBW                          4.56                       # Average achieved write bandwidth in MiByte/s
system.mem_ctrl.avgRdBWSys                     142.60                       # Average system read bandwidth in MiByte/s
system.mem_ctrl.avgWrBWSys                      11.14                       # Average system write bandwidth in MiByte/s
system.mem_ctrl.peakBW                       12800.00                       # Theoretical peak bandwidth in MiByte/s
system.mem_ctrl.busUtil                          9.19                       # Data bus utilization in percentage
system.mem_ctrl.busUtilRead                      9.16                       # Data bus utilization in percentage for reads
system.mem_ctrl.busUtilWrite                     0.04                       # Data bus utilization in percentage for writes
system.mem_ctrl.totGap                   164759855000                       # Total gap between requests
system.mem_ctrl.avgGap                       49324.84                       # Average gap between requests
system.mem_ctrl.masterReadBytes::.cpu.inst     20807200                       # Per-master bytes read from memory
system.mem_ctrl.masterReadBytes::.cpu.data      2328360                       # Per-master bytes read from memory
system.mem_ctrl.masterWriteBytes::.cpu.data        86158                       # Per-master bytes write to memory
system.mem_ctrl.masterReadRate::.cpu.inst 126287986.086325898767                       # Per-master bytes read from memory rate (Bytes/sec)
system.mem_ctrl.masterReadRate::.cpu.data 14131833.946132000536                       # Per-master bytes read from memory rate (Bytes/sec)
system.mem_ctrl.masterWriteRate::.cpu.data 522930.538718600583                       # Per-master bytes write to memory rate (Bytes/sec)
system.mem_ctrl.masterReadAccesses::.cpu.inst      2600900                       # Per-master read serviced memory accesses
system.mem_ctrl.masterReadAccesses::.cpu.data       468043                       # Per-master read serviced memory accesses
system.mem_ctrl.masterWriteAccesses::.cpu.data       271359                       # Per-master write serviced memory accesses
system.mem_ctrl.masterReadTotalLat::.cpu.inst  56327550500                       # Per-master read total memory access latency
system.mem_ctrl.masterReadTotalLat::.cpu.data  10373921500                       # Per-master read total memory access latency
system.mem_ctrl.masterWriteTotalLat::.cpu.data 4329757910000                       # Per-master write total memory access latency
system.mem_ctrl.masterReadAvgLat::.cpu.inst     21656.95                       # Per-master read average memory access latency
system.mem_ctrl.masterReadAvgLat::.cpu.data     22164.46                       # Per-master read average memory access latency
system.mem_ctrl.masterWriteAvgLat::.cpu.data  15955829.40                       # Per-master write average memory access latency
system.mem_ctrl.pageHitRate                     89.88                       # Row buffer hit rate, read and write combined
system.mem_ctrl.rank1.actEnergy            1078975380                       # Energy for activate commands per rank (pJ)
system.mem_ctrl.rank1.preEnergy             573485220                       # Energy for precharge commands per rank (pJ)
system.mem_ctrl.rank1.readEnergy          13564957560                       # Energy for read commands per rank (pJ)
system.mem_ctrl.rank1.writeEnergy            10393020                       # Energy for write commands per rank (pJ)
system.mem_ctrl.rank1.refreshEnergy      13005782400.000002                       # Energy for refresh commands per rank (pJ)
system.mem_ctrl.rank1.actBackEnergy       61858395000                       # Energy for active background per rank (pJ)
system.mem_ctrl.rank1.preBackEnergy       11176534080                       # Energy for precharge background per rank (pJ)
system.mem_ctrl.rank1.actPowerDownEnergy            0                       # Energy for active power-down per rank (pJ)
system.mem_ctrl.rank1.prePowerDownEnergy            0                       # Energy for precharge power-down per rank (pJ)
system.mem_ctrl.rank1.selfRefreshEnergy             0                       # Energy for self refresh per rank (pJ)
system.mem_ctrl.rank1.totalEnergy        101268522660                       # Total energy per rank (pJ)
system.mem_ctrl.rank1.averagePower         614.642902                       # Core power per rank (mW)
system.mem_ctrl.rank1.totalIdleTime                 0                       # Total Idle time Per DRAM Rank
system.mem_ctrl.rank1.memoryStateTime::IDLE  27987305750                       # Time in different power states
system.mem_ctrl.rank1.memoryStateTime::REF   5501600000                       # Time in different power states
system.mem_ctrl.rank1.memoryStateTime::SREF            0                       # Time in different power states
system.mem_ctrl.rank1.memoryStateTime::PRE_PDN            0                       # Time in different power states
system.mem_ctrl.rank1.memoryStateTime::ACT 131271026250                       # Time in different power states
system.mem_ctrl.rank1.memoryStateTime::ACT_PDN            0                       # Time in different power states
system.mem_ctrl.rank0.actEnergy            1109091900                       # Energy for activate commands per rank (pJ)
system.mem_ctrl.rank0.preEnergy             589488735                       # Energy for precharge commands per rank (pJ)
system.mem_ctrl.rank0.readEnergy           7974951600                       # Energy for read commands per rank (pJ)
system.mem_ctrl.rank0.writeEnergy            50853240                       # Energy for write commands per rank (pJ)
system.mem_ctrl.rank0.refreshEnergy      13005782400.000002                       # Energy for refresh commands per rank (pJ)
system.mem_ctrl.rank0.actBackEnergy       70891065870                       # Energy for active background per rank (pJ)
system.mem_ctrl.rank0.preBackEnergy        3570074400                       # Energy for precharge background per rank (pJ)
system.mem_ctrl.rank0.actPowerDownEnergy            0                       # Energy for active power-down per rank (pJ)
system.mem_ctrl.rank0.prePowerDownEnergy            0                       # Energy for precharge power-down per rank (pJ)
system.mem_ctrl.rank0.selfRefreshEnergy             0                       # Energy for self refresh per rank (pJ)
system.mem_ctrl.rank0.totalEnergy         97191308145                       # Total energy per rank (pJ)
system.mem_ctrl.rank0.averagePower         589.896506                       # Core power per rank (mW)
system.mem_ctrl.rank0.totalIdleTime                 0                       # Total Idle time Per DRAM Rank
system.mem_ctrl.rank0.memoryStateTime::IDLE   8627402750                       # Time in different power states
system.mem_ctrl.rank0.memoryStateTime::REF   5501600000                       # Time in different power states
system.mem_ctrl.rank0.memoryStateTime::SREF            0                       # Time in different power states
system.mem_ctrl.rank0.memoryStateTime::PRE_PDN            0                       # Time in different power states
system.mem_ctrl.rank0.memoryStateTime::ACT 150630929250                       # Time in different power states
system.mem_ctrl.rank0.memoryStateTime::ACT_PDN            0                       # Time in different power states
system.mem_ctrl.power_state.pwrStateResidencyTicks::UNDEFINED 164759932000                       # Cumulative time (in ticks) in various power states
system.cache.blocked_cycles::no_mshrs               0                       # number of cycles access was blocked
system.cache.blocked_cycles::no_targets             0                       # number of cycles access was blocked
system.cache.blocked::no_mshrs                      0                       # number of cycles access was blocked
system.cache.blocked::no_targets                    0                       # number of cycles access was blocked
system.cache.avg_blocked_cycles::no_mshrs          nan                       # average number of cycles each access was blocked
system.cache.avg_blocked_cycles::no_targets          nan                       # average number of cycles each access was blocked
system.cache.replacements                           0                       # number of replacements
system.cache.power_state.pwrStateResidencyTicks::UNDEFINED 164759932000                       # Cumulative time (in ticks) in various power states
system.cache.tags.tagsinuse                         0                       # Cycle average of tags in use
system.cache.tags.total_refs                        0                       # Total number of references to valid blocks.
system.cache.tags.sampled_refs                      0                       # Sample count of references to valid blocks.
system.cache.tags.avg_refs                        nan                       # Average number of references to valid blocks.
system.cache.tags.warmup_cycle                      0                       # Cycle when the warmup percentage was hit.
system.cache.tags.tag_accesses                      0                       # Number of tag accesses
system.cache.tags.data_accesses                     0                       # Number of data accesses
system.cache.tags.power_state.pwrStateResidencyTicks::UNDEFINED 164759932000                       # Cumulative time (in ticks) in various power states
system.clk_domain.clock                          1000                       # Clock period in ticks
system.clk_domain.voltage_domain.voltage            1                       # Voltage in Volts
system.cachebus.snoops                              0                       # Total snoops (count)
system.cachebus.snoopTraffic                        0                       # Total snoop traffic (bytes)
system.cachebus.snoop_fanout::samples               0                       # Request fanout histogram
system.cachebus.snoop_fanout::mean                nan                       # Request fanout histogram
system.cachebus.snoop_fanout::stdev               nan                       # Request fanout histogram
system.cachebus.snoop_fanout::underflows            0                       # Request fanout histogram
system.cachebus.snoop_fanout::0                     0                       # Request fanout histogram
system.cachebus.snoop_fanout::overflows             0                       # Request fanout histogram
system.cachebus.snoop_fanout::min_value             0                       # Request fanout histogram
system.cachebus.snoop_fanout::max_value             0                       # Request fanout histogram
system.cachebus.snoop_fanout::total                 0                       # Request fanout histogram
system.cachebus.power_state.pwrStateResidencyTicks::UNDEFINED 164759932000                       # Cumulative time (in ticks) in various power states
system.cpu.dtb.walker.power_state.pwrStateResidencyTicks::UNDEFINED 164759932000                       # Cumulative time (in ticks) in various power states
system.cpu.interrupts.clk_domain.clock          16000                       # Clock period in ticks
system.cpu.itb.walker.power_state.pwrStateResidencyTicks::UNDEFINED 164759932000                       # Cumulative time (in ticks) in various power states
system.cpu.power_state.numTransitions               1                       # Number of power state transitions
system.cpu.power_state.pwrStateResidencyTicks::ON 164759932000                       # Cumulative time (in ticks) in various power states

---------- End Simulation Statistics   ----------
