
---------- Begin Simulation Statistics ----------
final_tick                                63554094000                       # Number of ticks from beginning of simulation (restored from checkpoints and never reset)
host_inst_rate                                 488188                       # Simulator instruction rate (inst/s)
host_mem_usage                                 685844                       # Number of bytes of host memory used
host_op_rate                                   946124                       # Simulator op (including micro ops) rate (op/s)
host_seconds                                    20.48                       # Real time elapsed on the host
host_tick_rate                             3102603476                       # Simulator tick rate (ticks/s)
sim_freq                                 1000000000000                       # Frequency of simulated ticks
sim_insts                                    10000000                       # Number of instructions simulated
sim_ops                                      19380482                       # Number of ops (including micro ops) simulated
sim_seconds                                  0.063554                       # Number of seconds simulated
sim_ticks                                 63554094000                       # Number of ticks simulated
system.cpu.Branches                           2385778                       # Number of branches fetched
system.cpu.committedInsts                    10000000                       # Number of instructions committed
system.cpu.committedOps                      19380482                       # Number of ops (including micro ops) committed
system.cpu.dtb.rdAccesses                     2118298                       # TLB accesses on read requests
system.cpu.dtb.rdMisses                            40                       # TLB misses on read requests
system.cpu.dtb.wrAccesses                     1560542                       # TLB accesses on write requests
system.cpu.dtb.wrMisses                          1215                       # TLB misses on write requests
system.cpu.idle_fraction                            0                       # Percentage of idle cycles
system.cpu.itb.rdAccesses                           0                       # TLB accesses on read requests
system.cpu.itb.rdMisses                             0                       # TLB misses on read requests
system.cpu.itb.wrAccesses                    13683212                       # TLB accesses on write requests
system.cpu.itb.wrMisses                            48                       # TLB misses on write requests
system.cpu.not_idle_fraction                        1                       # Percentage of non-idle cycles
system.cpu.numCycles                         63554094                       # number of cpu cycles simulated
system.cpu.numWorkItemsCompleted                    0                       # number of work items this cpu completed
system.cpu.numWorkItemsStarted                      0                       # number of work items this cpu started
system.cpu.num_busy_cycles                   63554094                       # Number of busy cycles
system.cpu.num_cc_register_reads             12440590                       # number of times the CC registers were read
system.cpu.num_cc_register_writes             5934978                       # number of times the CC registers were written
system.cpu.num_conditional_control_insts      1851559                       # number of instructions that are conditional controls
system.cpu.num_fp_alu_accesses                 168607                       # Number of float alu accesses
system.cpu.num_fp_insts                        168607                       # number of float instructions
system.cpu.num_fp_register_reads               257365                       # number of times the floating registers were read
system.cpu.num_fp_register_writes              144771                       # number of times the floating registers were written
system.cpu.num_func_calls                      216063                       # number of times a function call or return occured
system.cpu.num_idle_cycles                          0                       # Number of idle cycles
system.cpu.num_int_alu_accesses              19198293                       # Number of integer alu accesses
system.cpu.num_int_insts                     19198293                       # number of integer instructions
system.cpu.num_int_register_reads            37869106                       # number of times the integer registers were read
system.cpu.num_int_register_writes           15592455                       # number of times the integer registers were written
system.cpu.num_load_insts                     2117292                       # Number of load instructions
system.cpu.num_mem_refs                       3677834                       # number of memory refs
system.cpu.num_store_insts                    1560542                       # Number of store instructions
system.cpu.num_vec_alu_accesses                     0                       # Number of vector alu accesses
system.cpu.num_vec_insts                            0                       # number of vector instructions
system.cpu.num_vec_register_reads                   0                       # number of times the vector registers were read
system.cpu.num_vec_register_writes                  0                       # number of times the vector registers were written
system.cpu.op_class::No_OpClass                 72434      0.37%      0.37% # Class of executed instruction
system.cpu.op_class::IntAlu                  15268343     78.78%     79.15% # Class of executed instruction
system.cpu.op_class::IntMult                   110408      0.57%     79.72% # Class of executed instruction
system.cpu.op_class::IntDiv                    118131      0.61%     80.33% # Class of executed instruction
system.cpu.op_class::FloatAdd                   10797      0.06%     80.39% # Class of executed instruction
system.cpu.op_class::FloatCmp                       0      0.00%     80.39% # Class of executed instruction
system.cpu.op_class::FloatCvt                       0      0.00%     80.39% # Class of executed instruction
system.cpu.op_class::FloatMult                      0      0.00%     80.39% # Class of executed instruction
system.cpu.op_class::FloatMultAcc                   0      0.00%     80.39% # Class of executed instruction
system.cpu.op_class::FloatDiv                       0      0.00%     80.39% # Class of executed instruction
system.cpu.op_class::FloatMisc                      0      0.00%     80.39% # Class of executed instruction
system.cpu.op_class::FloatSqrt                      0      0.00%     80.39% # Class of executed instruction
system.cpu.op_class::SimdAdd                        0      0.00%     80.39% # Class of executed instruction
system.cpu.op_class::SimdAddAcc                     0      0.00%     80.39% # Class of executed instruction
system.cpu.op_class::SimdAlu                      140      0.00%     80.39% # Class of executed instruction
system.cpu.op_class::SimdCmp                       14      0.00%     80.39% # Class of executed instruction
system.cpu.op_class::SimdCvt                    23724      0.12%     80.51% # Class of executed instruction
system.cpu.op_class::SimdMisc                   99263      0.51%     81.02% # Class of executed instruction
system.cpu.op_class::SimdMult                       0      0.00%     81.02% # Class of executed instruction
system.cpu.op_class::SimdMultAcc                    0      0.00%     81.02% # Class of executed instruction
system.cpu.op_class::SimdShift                      0      0.00%     81.02% # Class of executed instruction
system.cpu.op_class::SimdShiftAcc                   0      0.00%     81.02% # Class of executed instruction
system.cpu.op_class::SimdDiv                        0      0.00%     81.02% # Class of executed instruction
system.cpu.op_class::SimdSqrt                       0      0.00%     81.02% # Class of executed instruction
system.cpu.op_class::SimdFloatAdd                   0      0.00%     81.02% # Class of executed instruction
system.cpu.op_class::SimdFloatAlu                   0      0.00%     81.02% # Class of executed instruction
system.cpu.op_class::SimdFloatCmp                   0      0.00%     81.02% # Class of executed instruction
system.cpu.op_class::SimdFloatCvt                   0      0.00%     81.02% # Class of executed instruction
system.cpu.op_class::SimdFloatDiv                   0      0.00%     81.02% # Class of executed instruction
system.cpu.op_class::SimdFloatMisc                  0      0.00%     81.02% # Class of executed instruction
system.cpu.op_class::SimdFloatMult                  0      0.00%     81.02% # Class of executed instruction
system.cpu.op_class::SimdFloatMultAcc               0      0.00%     81.02% # Class of executed instruction
system.cpu.op_class::SimdFloatSqrt                  0      0.00%     81.02% # Class of executed instruction
system.cpu.op_class::SimdReduceAdd                  0      0.00%     81.02% # Class of executed instruction
system.cpu.op_class::SimdReduceAlu                  0      0.00%     81.02% # Class of executed instruction
system.cpu.op_class::SimdReduceCmp                  0      0.00%     81.02% # Class of executed instruction
system.cpu.op_class::SimdFloatReduceAdd             0      0.00%     81.02% # Class of executed instruction
system.cpu.op_class::SimdFloatReduceCmp             0      0.00%     81.02% # Class of executed instruction
system.cpu.op_class::SimdAes                        0      0.00%     81.02% # Class of executed instruction
system.cpu.op_class::SimdAesMix                     0      0.00%     81.02% # Class of executed instruction
system.cpu.op_class::SimdSha1Hash                   0      0.00%     81.02% # Class of executed instruction
system.cpu.op_class::SimdSha1Hash2                  0      0.00%     81.02% # Class of executed instruction
system.cpu.op_class::SimdSha256Hash                 0      0.00%     81.02% # Class of executed instruction
system.cpu.op_class::SimdSha256Hash2                0      0.00%     81.02% # Class of executed instruction
system.cpu.op_class::SimdShaSigma2                  0      0.00%     81.02% # Class of executed instruction
system.cpu.op_class::SimdShaSigma3                  0      0.00%     81.02% # Class of executed instruction
system.cpu.op_class::SimdPredAlu                    0      0.00%     81.02% # Class of executed instruction
system.cpu.op_class::MemRead                  2093612     10.80%     91.83% # Class of executed instruction
system.cpu.op_class::MemWrite                 1560390      8.05%     99.88% # Class of executed instruction
system.cpu.op_class::FloatMemRead               23680      0.12%    100.00% # Class of executed instruction
system.cpu.op_class::FloatMemWrite                152      0.00%    100.00% # Class of executed instruction
system.cpu.op_class::IprAccess                      0      0.00%    100.00% # Class of executed instruction
system.cpu.op_class::InstPrefetch                   0      0.00%    100.00% # Class of executed instruction
system.cpu.op_class::total                   19381088                       # Class of executed instruction
system.cpu.workload.numSyscalls                    30                       # Number of system calls
system.l2bar.snoop_filter.hit_multi_requests            1                       # Number of requests hitting in the snoop filter with multiple (>1) holders of the requested data.
system.l2bar.snoop_filter.hit_multi_snoops            0                       # Number of snoops hitting in the snoop filter with multiple (>1) holders of the requested data.
system.l2bar.snoop_filter.hit_single_requests        98580                       # Number of requests hitting in the snoop filter with a single holder of the requested data.
system.l2bar.snoop_filter.hit_single_snoops        10493                       # Number of snoops hitting in the snoop filter with a single holder of the requested data.
system.l2bar.snoop_filter.tot_requests         197998                       # Total number of requests made to the snoop filter.
system.l2bar.snoop_filter.tot_snoops            10493                       # Total number of snoops made to the snoop filter.
system.membus.snoop_filter.hit_multi_requests            0                       # Number of requests hitting in the snoop filter with multiple (>1) holders of the requested data.
system.membus.snoop_filter.hit_multi_snoops            0                       # Number of snoops hitting in the snoop filter with multiple (>1) holders of the requested data.
system.membus.snoop_filter.hit_single_requests        20497                       # Number of requests hitting in the snoop filter with a single holder of the requested data.
system.membus.snoop_filter.hit_single_snoops            0                       # Number of snoops hitting in the snoop filter with a single holder of the requested data.
system.membus.snoop_filter.tot_requests         57730                       # Total number of requests made to the snoop filter.
system.membus.snoop_filter.tot_snoops               0                       # Total number of snoops made to the snoop filter.
system.membus.trans_dist::ReadResp               5396                       # Transaction distribution
system.membus.trans_dist::WritebackDirty        19644                       # Transaction distribution
system.membus.trans_dist::CleanEvict              853                       # Transaction distribution
system.membus.trans_dist::ReadExReq             31837                       # Transaction distribution
system.membus.trans_dist::ReadExResp            31837                       # Transaction distribution
system.membus.trans_dist::ReadSharedReq          5396                       # Transaction distribution
system.membus.pkt_count_system.DynamicCache.mem_side::system.mem_delay-slave        94963                       # Packet count per connected master and slave (bytes)
system.membus.pkt_count_system.DynamicCache.mem_side::total        94963                       # Packet count per connected master and slave (bytes)
system.membus.pkt_count::total                  94963                       # Packet count per connected master and slave (bytes)
system.membus.pkt_size_system.DynamicCache.mem_side::system.mem_delay-slave      3640128                       # Cumulative packet size per connected master and slave (bytes)
system.membus.pkt_size_system.DynamicCache.mem_side::total      3640128                       # Cumulative packet size per connected master and slave (bytes)
system.membus.pkt_size::total                 3640128                       # Cumulative packet size per connected master and slave (bytes)
system.membus.snoops                                0                       # Total snoops (count)
system.membus.snoopTraffic                          0                       # Total snoop traffic (bytes)
system.membus.snoop_fanout::samples             37233                       # Request fanout histogram
system.membus.snoop_fanout::mean                    0                       # Request fanout histogram
system.membus.snoop_fanout::stdev                   0                       # Request fanout histogram
system.membus.snoop_fanout::underflows              0      0.00%      0.00% # Request fanout histogram
system.membus.snoop_fanout::0                   37233    100.00%    100.00% # Request fanout histogram
system.membus.snoop_fanout::1                       0      0.00%    100.00% # Request fanout histogram
system.membus.snoop_fanout::overflows               0      0.00%    100.00% # Request fanout histogram
system.membus.snoop_fanout::min_value               0                       # Request fanout histogram
system.membus.snoop_fanout::max_value               0                       # Request fanout histogram
system.membus.snoop_fanout::total               37233                       # Request fanout histogram
system.membus.reqLayer0.occupancy           136306000                       # Layer occupancy (ticks)
system.membus.reqLayer0.utilization               0.2                       # Layer utilization (%)
system.membus.respLayer0.occupancy          203007749                       # Layer occupancy (ticks)
system.membus.respLayer0.utilization              0.3                       # Layer utilization (%)
system.membus.power_state.pwrStateResidencyTicks::UNDEFINED  63554094000                       # Cumulative time (in ticks) in various power states
system.icache.demand_hits::.cpu.inst         13628682                       # number of demand (read+write) hits
system.icache.demand_hits::total             13628682                       # number of demand (read+write) hits
system.icache.overall_hits::.cpu.inst        13628682                       # number of overall hits
system.icache.overall_hits::total            13628682                       # number of overall hits
system.icache.demand_misses::.cpu.inst          54530                       # number of demand (read+write) misses
system.icache.demand_misses::total              54530                       # number of demand (read+write) misses
system.icache.overall_misses::.cpu.inst         54530                       # number of overall misses
system.icache.overall_misses::total             54530                       # number of overall misses
system.icache.demand_miss_latency::.cpu.inst   1849975000                       # number of demand (read+write) miss cycles
system.icache.demand_miss_latency::total   1849975000                       # number of demand (read+write) miss cycles
system.icache.overall_miss_latency::.cpu.inst   1849975000                       # number of overall miss cycles
system.icache.overall_miss_latency::total   1849975000                       # number of overall miss cycles
system.icache.demand_accesses::.cpu.inst     13683212                       # number of demand (read+write) accesses
system.icache.demand_accesses::total         13683212                       # number of demand (read+write) accesses
system.icache.overall_accesses::.cpu.inst     13683212                       # number of overall (read+write) accesses
system.icache.overall_accesses::total        13683212                       # number of overall (read+write) accesses
system.icache.demand_miss_rate::.cpu.inst     0.003985                       # miss rate for demand accesses
system.icache.demand_miss_rate::total        0.003985                       # miss rate for demand accesses
system.icache.overall_miss_rate::.cpu.inst     0.003985                       # miss rate for overall accesses
system.icache.overall_miss_rate::total       0.003985                       # miss rate for overall accesses
system.icache.demand_avg_miss_latency::.cpu.inst 33925.820649                       # average overall miss latency
system.icache.demand_avg_miss_latency::total 33925.820649                       # average overall miss latency
system.icache.overall_avg_miss_latency::.cpu.inst 33925.820649                       # average overall miss latency
system.icache.overall_avg_miss_latency::total 33925.820649                       # average overall miss latency
system.icache.blocked_cycles::no_mshrs              0                       # number of cycles access was blocked
system.icache.blocked_cycles::no_targets            0                       # number of cycles access was blocked
system.icache.blocked::no_mshrs                     0                       # number of cycles access was blocked
system.icache.blocked::no_targets                   0                       # number of cycles access was blocked
system.icache.avg_blocked_cycles::no_mshrs          nan                       # average number of cycles each access was blocked
system.icache.avg_blocked_cycles::no_targets          nan                       # average number of cycles each access was blocked
system.icache.demand_mshr_misses::.cpu.inst        54530                       # number of demand (read+write) MSHR misses
system.icache.demand_mshr_misses::total         54530                       # number of demand (read+write) MSHR misses
system.icache.overall_mshr_misses::.cpu.inst        54530                       # number of overall MSHR misses
system.icache.overall_mshr_misses::total        54530                       # number of overall MSHR misses
system.icache.demand_mshr_miss_latency::.cpu.inst   1740915000                       # number of demand (read+write) MSHR miss cycles
system.icache.demand_mshr_miss_latency::total   1740915000                       # number of demand (read+write) MSHR miss cycles
system.icache.overall_mshr_miss_latency::.cpu.inst   1740915000                       # number of overall MSHR miss cycles
system.icache.overall_mshr_miss_latency::total   1740915000                       # number of overall MSHR miss cycles
system.icache.demand_mshr_miss_rate::.cpu.inst     0.003985                       # mshr miss rate for demand accesses
system.icache.demand_mshr_miss_rate::total     0.003985                       # mshr miss rate for demand accesses
system.icache.overall_mshr_miss_rate::.cpu.inst     0.003985                       # mshr miss rate for overall accesses
system.icache.overall_mshr_miss_rate::total     0.003985                       # mshr miss rate for overall accesses
system.icache.demand_avg_mshr_miss_latency::.cpu.inst 31925.820649                       # average overall mshr miss latency
system.icache.demand_avg_mshr_miss_latency::total 31925.820649                       # average overall mshr miss latency
system.icache.overall_avg_mshr_miss_latency::.cpu.inst 31925.820649                       # average overall mshr miss latency
system.icache.overall_avg_mshr_miss_latency::total 31925.820649                       # average overall mshr miss latency
system.icache.replacements                      54197                       # number of replacements
system.icache.ReadReq_hits::.cpu.inst        13628682                       # number of ReadReq hits
system.icache.ReadReq_hits::total            13628682                       # number of ReadReq hits
system.icache.ReadReq_misses::.cpu.inst         54530                       # number of ReadReq misses
system.icache.ReadReq_misses::total             54530                       # number of ReadReq misses
system.icache.ReadReq_miss_latency::.cpu.inst   1849975000                       # number of ReadReq miss cycles
system.icache.ReadReq_miss_latency::total   1849975000                       # number of ReadReq miss cycles
system.icache.ReadReq_accesses::.cpu.inst     13683212                       # number of ReadReq accesses(hits+misses)
system.icache.ReadReq_accesses::total        13683212                       # number of ReadReq accesses(hits+misses)
system.icache.ReadReq_miss_rate::.cpu.inst     0.003985                       # miss rate for ReadReq accesses
system.icache.ReadReq_miss_rate::total       0.003985                       # miss rate for ReadReq accesses
system.icache.ReadReq_avg_miss_latency::.cpu.inst 33925.820649                       # average ReadReq miss latency
system.icache.ReadReq_avg_miss_latency::total 33925.820649                       # average ReadReq miss latency
system.icache.ReadReq_mshr_misses::.cpu.inst        54530                       # number of ReadReq MSHR misses
system.icache.ReadReq_mshr_misses::total        54530                       # number of ReadReq MSHR misses
system.icache.ReadReq_mshr_miss_latency::.cpu.inst   1740915000                       # number of ReadReq MSHR miss cycles
system.icache.ReadReq_mshr_miss_latency::total   1740915000                       # number of ReadReq MSHR miss cycles
system.icache.ReadReq_mshr_miss_rate::.cpu.inst     0.003985                       # mshr miss rate for ReadReq accesses
system.icache.ReadReq_mshr_miss_rate::total     0.003985                       # mshr miss rate for ReadReq accesses
system.icache.ReadReq_avg_mshr_miss_latency::.cpu.inst 31925.820649                       # average ReadReq mshr miss latency
system.icache.ReadReq_avg_mshr_miss_latency::total 31925.820649                       # average ReadReq mshr miss latency
system.icache.power_state.pwrStateResidencyTicks::UNDEFINED  63554094000                       # Cumulative time (in ticks) in various power states
system.icache.tags.tagsinuse               331.584295                       # Cycle average of tags in use
system.icache.tags.total_refs                13683212                       # Total number of references to valid blocks.
system.icache.tags.sampled_refs                 54530                       # Sample count of references to valid blocks.
system.icache.tags.avg_refs                250.929983                       # Average number of references to valid blocks.
system.icache.tags.warmup_cycle                729000                       # Cycle when the warmup percentage was hit.
system.icache.tags.occ_blocks::.cpu.inst   331.584295                       # Average occupied blocks per requestor
system.icache.tags.occ_percent::.cpu.inst     0.647626                       # Average percentage of cache occupancy
system.icache.tags.occ_percent::total        0.647626                       # Average percentage of cache occupancy
system.icache.tags.occ_task_id_blocks::1024          333                       # Occupied blocks per task id
system.icache.tags.age_task_id_blocks_1024::0            5                       # Occupied blocks per task id
system.icache.tags.age_task_id_blocks_1024::3            3                       # Occupied blocks per task id
system.icache.tags.age_task_id_blocks_1024::4          325                       # Occupied blocks per task id
system.icache.tags.occ_task_id_percent::1024     0.650391                       # Percentage of cache occupancy per task id
system.icache.tags.tag_accesses              13737742                       # Number of tag accesses
system.icache.tags.data_accesses             13737742                       # Number of data accesses
system.icache.tags.power_state.pwrStateResidencyTicks::UNDEFINED  63554094000                       # Cumulative time (in ticks) in various power states
system.mem_delay.power_state.pwrStateResidencyTicks::UNDEFINED  63554094000                       # Cumulative time (in ticks) in various power states
system.mem_ctrl.bytes_read::.cpu.inst           37248                       # Number of bytes read from this memory
system.mem_ctrl.bytes_read::.cpu.data         2345664                       # Number of bytes read from this memory
system.mem_ctrl.bytes_read::total             2382912                       # Number of bytes read from this memory
system.mem_ctrl.bytes_inst_read::.cpu.inst        37248                       # Number of instructions bytes read from this memory
system.mem_ctrl.bytes_inst_read::total          37248                       # Number of instructions bytes read from this memory
system.mem_ctrl.bytes_written::.writebacks      1257216                       # Number of bytes written to this memory
system.mem_ctrl.bytes_written::total          1257216                       # Number of bytes written to this memory
system.mem_ctrl.num_reads::.cpu.inst              582                       # Number of read requests responded to by this memory
system.mem_ctrl.num_reads::.cpu.data            36651                       # Number of read requests responded to by this memory
system.mem_ctrl.num_reads::total                37233                       # Number of read requests responded to by this memory
system.mem_ctrl.num_writes::.writebacks         19644                       # Number of write requests responded to by this memory
system.mem_ctrl.num_writes::total               19644                       # Number of write requests responded to by this memory
system.mem_ctrl.bw_read::.cpu.inst             586083                       # Total read bandwidth from this memory (bytes/s)
system.mem_ctrl.bw_read::.cpu.data           36908149                       # Total read bandwidth from this memory (bytes/s)
system.mem_ctrl.bw_read::total               37494233                       # Total read bandwidth from this memory (bytes/s)
system.mem_ctrl.bw_inst_read::.cpu.inst        586083                       # Instruction read bandwidth from this memory (bytes/s)
system.mem_ctrl.bw_inst_read::total            586083                       # Instruction read bandwidth from this memory (bytes/s)
system.mem_ctrl.bw_write::.writebacks        19781826                       # Write bandwidth from this memory (bytes/s)
system.mem_ctrl.bw_write::total              19781826                       # Write bandwidth from this memory (bytes/s)
system.mem_ctrl.bw_total::.writebacks        19781826                       # Total bandwidth to/from this memory (bytes/s)
system.mem_ctrl.bw_total::.cpu.inst            586083                       # Total bandwidth to/from this memory (bytes/s)
system.mem_ctrl.bw_total::.cpu.data          36908149                       # Total bandwidth to/from this memory (bytes/s)
system.mem_ctrl.bw_total::total              57276058                       # Total bandwidth to/from this memory (bytes/s)
system.mem_ctrl.avgPriority_.writebacks::samples     19644.00                       # Average QoS priority value for accepted requests
system.mem_ctrl.avgPriority_.cpu.inst::samples       582.00                       # Average QoS priority value for accepted requests
system.mem_ctrl.avgPriority_.cpu.data::samples     36651.00                       # Average QoS priority value for accepted requests
system.mem_ctrl.priorityMinLatency       0.000000018750                       # per QoS priority minimum request to response latency (s)
system.mem_ctrl.priorityMaxLatency       0.018121470500                       # per QoS priority maximum request to response latency (s)
system.mem_ctrl.numReadWriteTurnArounds          1091                       # Number of turnarounds from READ to WRITE
system.mem_ctrl.numWriteReadTurnArounds          1091                       # Number of turnarounds from WRITE to READ
system.mem_ctrl.numStayReadState               110357                       # Number of times bus staying in READ state
system.mem_ctrl.numStayWriteState               18551                       # Number of times bus staying in WRITE state
system.mem_ctrl.readReqs                        37233                       # Number of read requests accepted
system.mem_ctrl.writeReqs                       19644                       # Number of write requests accepted
system.mem_ctrl.readBursts                      37233                       # Number of DRAM read bursts, including those serviced by the write queue
system.mem_ctrl.writeBursts                     19644                       # Number of DRAM write bursts, including those merged in the write queue
system.mem_ctrl.servicedByWrQ                       0                       # Number of DRAM read bursts serviced by the write queue
system.mem_ctrl.mergedWrBursts                      0                       # Number of DRAM write bursts merged with an existing one
system.mem_ctrl.neitherReadNorWriteReqs             0                       # Number of requests that are neither read nor write
system.mem_ctrl.perBankRdBursts::0               2367                       # Per bank write bursts
system.mem_ctrl.perBankRdBursts::1               2166                       # Per bank write bursts
system.mem_ctrl.perBankRdBursts::2               2310                       # Per bank write bursts
system.mem_ctrl.perBankRdBursts::3               2218                       # Per bank write bursts
system.mem_ctrl.perBankRdBursts::4               2402                       # Per bank write bursts
system.mem_ctrl.perBankRdBursts::5               2253                       # Per bank write bursts
system.mem_ctrl.perBankRdBursts::6               2318                       # Per bank write bursts
system.mem_ctrl.perBankRdBursts::7               2280                       # Per bank write bursts
system.mem_ctrl.perBankRdBursts::8               2344                       # Per bank write bursts
system.mem_ctrl.perBankRdBursts::9               2336                       # Per bank write bursts
system.mem_ctrl.perBankRdBursts::10              2330                       # Per bank write bursts
system.mem_ctrl.perBankRdBursts::11              2193                       # Per bank write bursts
system.mem_ctrl.perBankRdBursts::12              2318                       # Per bank write bursts
system.mem_ctrl.perBankRdBursts::13              2547                       # Per bank write bursts
system.mem_ctrl.perBankRdBursts::14              2598                       # Per bank write bursts
system.mem_ctrl.perBankRdBursts::15              2253                       # Per bank write bursts
system.mem_ctrl.perBankWrBursts::0               1225                       # Per bank write bursts
system.mem_ctrl.perBankWrBursts::1               1121                       # Per bank write bursts
system.mem_ctrl.perBankWrBursts::2               1248                       # Per bank write bursts
system.mem_ctrl.perBankWrBursts::3               1125                       # Per bank write bursts
system.mem_ctrl.perBankWrBursts::4               1261                       # Per bank write bursts
system.mem_ctrl.perBankWrBursts::5               1188                       # Per bank write bursts
system.mem_ctrl.perBankWrBursts::6               1286                       # Per bank write bursts
system.mem_ctrl.perBankWrBursts::7               1249                       # Per bank write bursts
system.mem_ctrl.perBankWrBursts::8               1304                       # Per bank write bursts
system.mem_ctrl.perBankWrBursts::9               1255                       # Per bank write bursts
system.mem_ctrl.perBankWrBursts::10              1245                       # Per bank write bursts
system.mem_ctrl.perBankWrBursts::11              1141                       # Per bank write bursts
system.mem_ctrl.perBankWrBursts::12              1233                       # Per bank write bursts
system.mem_ctrl.perBankWrBursts::13              1217                       # Per bank write bursts
system.mem_ctrl.perBankWrBursts::14              1307                       # Per bank write bursts
system.mem_ctrl.perBankWrBursts::15              1209                       # Per bank write bursts
system.mem_ctrl.avgRdQLen                        1.00                       # Average read queue length when enqueuing
system.mem_ctrl.avgWrQLen                       16.99                       # Average write queue length when enqueuing
system.mem_ctrl.totQLat                     588014500                       # Total ticks spent queuing
system.mem_ctrl.totBusLat                   186165000                       # Total ticks spent in databus transfers
system.mem_ctrl.totMemAccLat               1286133250                       # Total ticks spent from burst creation until serviced by the DRAM
system.mem_ctrl.avgQLat                      15792.83                       # Average queueing delay per DRAM burst
system.mem_ctrl.avgBusLat                     5000.00                       # Average bus latency per DRAM burst
system.mem_ctrl.avgMemAccLat                 34542.83                       # Average memory access latency per DRAM burst
system.mem_ctrl.numRdRetry                          0                       # Number of times read queue was full causing retry
system.mem_ctrl.numWrRetry                          0                       # Number of times write queue was full causing retry
system.mem_ctrl.readRowHits                      8714                       # Number of row buffer hits during reads
system.mem_ctrl.writeRowHits                    10900                       # Number of row buffer hits during writes
system.mem_ctrl.readRowHitRate                  23.40                       # Row buffer hit rate for reads
system.mem_ctrl.writeRowHitRate                 55.49                       # Row buffer hit rate for writes
system.mem_ctrl.readPktSize::0                      0                       # Read request sizes (log2)
system.mem_ctrl.readPktSize::1                      0                       # Read request sizes (log2)
system.mem_ctrl.readPktSize::2                      0                       # Read request sizes (log2)
system.mem_ctrl.readPktSize::3                      0                       # Read request sizes (log2)
system.mem_ctrl.readPktSize::4                      0                       # Read request sizes (log2)
system.mem_ctrl.readPktSize::5                      0                       # Read request sizes (log2)
system.mem_ctrl.readPktSize::6                  37233                       # Read request sizes (log2)
system.mem_ctrl.writePktSize::0                     0                       # Write request sizes (log2)
system.mem_ctrl.writePktSize::1                     0                       # Write request sizes (log2)
system.mem_ctrl.writePktSize::2                     0                       # Write request sizes (log2)
system.mem_ctrl.writePktSize::3                     0                       # Write request sizes (log2)
system.mem_ctrl.writePktSize::4                     0                       # Write request sizes (log2)
system.mem_ctrl.writePktSize::5                     0                       # Write request sizes (log2)
system.mem_ctrl.writePktSize::6                 19644                       # Write request sizes (log2)
system.mem_ctrl.rdQLenPdf::0                    37233                       # What read queue length does an incoming req see
system.mem_ctrl.rdQLenPdf::1                        0                       # What read queue length does an incoming req see
system.mem_ctrl.rdQLenPdf::2                        0                       # What read queue length does an incoming req see
system.mem_ctrl.rdQLenPdf::3                        0                       # What read queue length does an incoming req see
system.mem_ctrl.rdQLenPdf::4                        0                       # What read queue length does an incoming req see
system.mem_ctrl.rdQLenPdf::5                        0                       # What read queue length does an incoming req see
system.mem_ctrl.rdQLenPdf::6                        0                       # What read queue length does an incoming req see
system.mem_ctrl.rdQLenPdf::7                        0                       # What read queue length does an incoming req see
system.mem_ctrl.rdQLenPdf::8                        0                       # What read queue length does an incoming req see
system.mem_ctrl.rdQLenPdf::9                        0                       # What read queue length does an incoming req see
system.mem_ctrl.rdQLenPdf::10                       0                       # What read queue length does an incoming req see
system.mem_ctrl.rdQLenPdf::11                       0                       # What read queue length does an incoming req see
system.mem_ctrl.rdQLenPdf::12                       0                       # What read queue length does an incoming req see
system.mem_ctrl.rdQLenPdf::13                       0                       # What read queue length does an incoming req see
system.mem_ctrl.rdQLenPdf::14                       0                       # What read queue length does an incoming req see
system.mem_ctrl.rdQLenPdf::15                       0                       # What read queue length does an incoming req see
system.mem_ctrl.rdQLenPdf::16                       0                       # What read queue length does an incoming req see
system.mem_ctrl.rdQLenPdf::17                       0                       # What read queue length does an incoming req see
system.mem_ctrl.rdQLenPdf::18                       0                       # What read queue length does an incoming req see
system.mem_ctrl.rdQLenPdf::19                       0                       # What read queue length does an incoming req see
system.mem_ctrl.rdQLenPdf::20                       0                       # What read queue length does an incoming req see
system.mem_ctrl.rdQLenPdf::21                       0                       # What read queue length does an incoming req see
system.mem_ctrl.rdQLenPdf::22                       0                       # What read queue length does an incoming req see
system.mem_ctrl.rdQLenPdf::23                       0                       # What read queue length does an incoming req see
system.mem_ctrl.rdQLenPdf::24                       0                       # What read queue length does an incoming req see
system.mem_ctrl.rdQLenPdf::25                       0                       # What read queue length does an incoming req see
system.mem_ctrl.rdQLenPdf::26                       0                       # What read queue length does an incoming req see
system.mem_ctrl.rdQLenPdf::27                       0                       # What read queue length does an incoming req see
system.mem_ctrl.rdQLenPdf::28                       0                       # What read queue length does an incoming req see
system.mem_ctrl.rdQLenPdf::29                       0                       # What read queue length does an incoming req see
system.mem_ctrl.rdQLenPdf::30                       0                       # What read queue length does an incoming req see
system.mem_ctrl.rdQLenPdf::31                       0                       # What read queue length does an incoming req see
system.mem_ctrl.wrQLenPdf::0                        1                       # What write queue length does an incoming req see
system.mem_ctrl.wrQLenPdf::1                        1                       # What write queue length does an incoming req see
system.mem_ctrl.wrQLenPdf::2                        1                       # What write queue length does an incoming req see
system.mem_ctrl.wrQLenPdf::3                        1                       # What write queue length does an incoming req see
system.mem_ctrl.wrQLenPdf::4                        1                       # What write queue length does an incoming req see
system.mem_ctrl.wrQLenPdf::5                        1                       # What write queue length does an incoming req see
system.mem_ctrl.wrQLenPdf::6                        1                       # What write queue length does an incoming req see
system.mem_ctrl.wrQLenPdf::7                        1                       # What write queue length does an incoming req see
system.mem_ctrl.wrQLenPdf::8                        1                       # What write queue length does an incoming req see
system.mem_ctrl.wrQLenPdf::9                        1                       # What write queue length does an incoming req see
system.mem_ctrl.wrQLenPdf::10                       1                       # What write queue length does an incoming req see
system.mem_ctrl.wrQLenPdf::11                       1                       # What write queue length does an incoming req see
system.mem_ctrl.wrQLenPdf::12                       1                       # What write queue length does an incoming req see
system.mem_ctrl.wrQLenPdf::13                       1                       # What write queue length does an incoming req see
system.mem_ctrl.wrQLenPdf::14                       1                       # What write queue length does an incoming req see
system.mem_ctrl.wrQLenPdf::15                    1079                       # What write queue length does an incoming req see
system.mem_ctrl.wrQLenPdf::16                    1081                       # What write queue length does an incoming req see
system.mem_ctrl.wrQLenPdf::17                    1092                       # What write queue length does an incoming req see
system.mem_ctrl.wrQLenPdf::18                    1092                       # What write queue length does an incoming req see
system.mem_ctrl.wrQLenPdf::19                    1092                       # What write queue length does an incoming req see
system.mem_ctrl.wrQLenPdf::20                    1092                       # What write queue length does an incoming req see
system.mem_ctrl.wrQLenPdf::21                    1092                       # What write queue length does an incoming req see
system.mem_ctrl.wrQLenPdf::22                    1092                       # What write queue length does an incoming req see
system.mem_ctrl.wrQLenPdf::23                    1092                       # What write queue length does an incoming req see
system.mem_ctrl.wrQLenPdf::24                    1092                       # What write queue length does an incoming req see
system.mem_ctrl.wrQLenPdf::25                    1092                       # What write queue length does an incoming req see
system.mem_ctrl.wrQLenPdf::26                    1092                       # What write queue length does an incoming req see
system.mem_ctrl.wrQLenPdf::27                    1092                       # What write queue length does an incoming req see
system.mem_ctrl.wrQLenPdf::28                    1092                       # What write queue length does an incoming req see
system.mem_ctrl.wrQLenPdf::29                    1092                       # What write queue length does an incoming req see
system.mem_ctrl.wrQLenPdf::30                    1091                       # What write queue length does an incoming req see
system.mem_ctrl.wrQLenPdf::31                    1091                       # What write queue length does an incoming req see
system.mem_ctrl.wrQLenPdf::32                    1091                       # What write queue length does an incoming req see
system.mem_ctrl.wrQLenPdf::33                       0                       # What write queue length does an incoming req see
system.mem_ctrl.wrQLenPdf::34                       0                       # What write queue length does an incoming req see
system.mem_ctrl.wrQLenPdf::35                       0                       # What write queue length does an incoming req see
system.mem_ctrl.wrQLenPdf::36                       0                       # What write queue length does an incoming req see
system.mem_ctrl.wrQLenPdf::37                       0                       # What write queue length does an incoming req see
system.mem_ctrl.wrQLenPdf::38                       0                       # What write queue length does an incoming req see
system.mem_ctrl.wrQLenPdf::39                       0                       # What write queue length does an incoming req see
system.mem_ctrl.wrQLenPdf::40                       0                       # What write queue length does an incoming req see
system.mem_ctrl.wrQLenPdf::41                       0                       # What write queue length does an incoming req see
system.mem_ctrl.wrQLenPdf::42                       0                       # What write queue length does an incoming req see
system.mem_ctrl.wrQLenPdf::43                       0                       # What write queue length does an incoming req see
system.mem_ctrl.wrQLenPdf::44                       0                       # What write queue length does an incoming req see
system.mem_ctrl.wrQLenPdf::45                       0                       # What write queue length does an incoming req see
system.mem_ctrl.wrQLenPdf::46                       0                       # What write queue length does an incoming req see
system.mem_ctrl.wrQLenPdf::47                       0                       # What write queue length does an incoming req see
system.mem_ctrl.wrQLenPdf::48                       0                       # What write queue length does an incoming req see
system.mem_ctrl.wrQLenPdf::49                       0                       # What write queue length does an incoming req see
system.mem_ctrl.wrQLenPdf::50                       0                       # What write queue length does an incoming req see
system.mem_ctrl.wrQLenPdf::51                       0                       # What write queue length does an incoming req see
system.mem_ctrl.wrQLenPdf::52                       0                       # What write queue length does an incoming req see
system.mem_ctrl.wrQLenPdf::53                       0                       # What write queue length does an incoming req see
system.mem_ctrl.wrQLenPdf::54                       0                       # What write queue length does an incoming req see
system.mem_ctrl.wrQLenPdf::55                       0                       # What write queue length does an incoming req see
system.mem_ctrl.wrQLenPdf::56                       0                       # What write queue length does an incoming req see
system.mem_ctrl.wrQLenPdf::57                       0                       # What write queue length does an incoming req see
system.mem_ctrl.wrQLenPdf::58                       0                       # What write queue length does an incoming req see
system.mem_ctrl.wrQLenPdf::59                       0                       # What write queue length does an incoming req see
system.mem_ctrl.wrQLenPdf::60                       0                       # What write queue length does an incoming req see
system.mem_ctrl.wrQLenPdf::61                       0                       # What write queue length does an incoming req see
system.mem_ctrl.wrQLenPdf::62                       0                       # What write queue length does an incoming req see
system.mem_ctrl.wrQLenPdf::63                       0                       # What write queue length does an incoming req see
system.mem_ctrl.bytesPerActivate::samples        37232                       # Bytes accessed per row activation
system.mem_ctrl.bytesPerActivate::mean      97.715514                       # Bytes accessed per row activation
system.mem_ctrl.bytesPerActivate::gmean     81.918164                       # Bytes accessed per row activation
system.mem_ctrl.bytesPerActivate::stdev     99.177690                       # Bytes accessed per row activation
system.mem_ctrl.bytesPerActivate::0-127         27262     73.22%     73.22% # Bytes accessed per row activation
system.mem_ctrl.bytesPerActivate::128-255         8316     22.34%     95.56% # Bytes accessed per row activation
system.mem_ctrl.bytesPerActivate::256-383          771      2.07%     97.63% # Bytes accessed per row activation
system.mem_ctrl.bytesPerActivate::384-511          186      0.50%     98.13% # Bytes accessed per row activation
system.mem_ctrl.bytesPerActivate::512-639          243      0.65%     98.78% # Bytes accessed per row activation
system.mem_ctrl.bytesPerActivate::640-767          169      0.45%     99.23% # Bytes accessed per row activation
system.mem_ctrl.bytesPerActivate::768-895          134      0.36%     99.59% # Bytes accessed per row activation
system.mem_ctrl.bytesPerActivate::896-1023          118      0.32%     99.91% # Bytes accessed per row activation
system.mem_ctrl.bytesPerActivate::1024-1151           33      0.09%    100.00% # Bytes accessed per row activation
system.mem_ctrl.bytesPerActivate::total         37232                       # Bytes accessed per row activation
system.mem_ctrl.rdPerTurnAround::samples         1091                       # Reads before turning the bus around for writes
system.mem_ctrl.rdPerTurnAround::mean       34.113657                       # Reads before turning the bus around for writes
system.mem_ctrl.rdPerTurnAround::gmean      20.051858                       # Reads before turning the bus around for writes
system.mem_ctrl.rdPerTurnAround::stdev     421.089256                       # Reads before turning the bus around for writes
system.mem_ctrl.rdPerTurnAround::0-511           1090     99.91%     99.91% # Reads before turning the bus around for writes
system.mem_ctrl.rdPerTurnAround::13824-14335            1      0.09%    100.00% # Reads before turning the bus around for writes
system.mem_ctrl.rdPerTurnAround::total           1091                       # Reads before turning the bus around for writes
system.mem_ctrl.wrPerTurnAround::samples         1091                       # Writes before turning the bus around for reads
system.mem_ctrl.wrPerTurnAround::mean       17.978002                       # Writes before turning the bus around for reads
system.mem_ctrl.wrPerTurnAround::gmean      17.976753                       # Writes before turning the bus around for reads
system.mem_ctrl.wrPerTurnAround::stdev       0.204249                       # Writes before turning the bus around for reads
system.mem_ctrl.wrPerTurnAround::16                11      1.01%      1.01% # Writes before turning the bus around for reads
system.mem_ctrl.wrPerTurnAround::17                 2      0.18%      1.19% # Writes before turning the bus around for reads
system.mem_ctrl.wrPerTurnAround::18              1078     98.81%    100.00% # Writes before turning the bus around for reads
system.mem_ctrl.wrPerTurnAround::total           1091                       # Writes before turning the bus around for reads
system.mem_ctrl.bytesReadDRAM                 2382912                       # Total number of bytes read from DRAM
system.mem_ctrl.bytesReadWrQ                        0                       # Total number of bytes read from write queue
system.mem_ctrl.bytesWritten                  1255296                       # Total number of bytes written to DRAM
system.mem_ctrl.bytesReadSys                  2382912                       # Total read bytes from the system interface side
system.mem_ctrl.bytesWrittenSys               1257216                       # Total written bytes from the system interface side
system.mem_ctrl.avgRdBW                         37.49                       # Average DRAM read bandwidth in MiByte/s
system.mem_ctrl.avgWrBW                         19.75                       # Average achieved write bandwidth in MiByte/s
system.mem_ctrl.avgRdBWSys                      37.49                       # Average system read bandwidth in MiByte/s
system.mem_ctrl.avgWrBWSys                      19.78                       # Average system write bandwidth in MiByte/s
system.mem_ctrl.peakBW                       12800.00                       # Theoretical peak bandwidth in MiByte/s
system.mem_ctrl.busUtil                          0.45                       # Data bus utilization in percentage
system.mem_ctrl.busUtilRead                      0.29                       # Data bus utilization in percentage for reads
system.mem_ctrl.busUtilWrite                     0.15                       # Data bus utilization in percentage for writes
system.mem_ctrl.totGap                    63552203000                       # Total gap between requests
system.mem_ctrl.avgGap                     1117362.08                       # Average gap between requests
system.mem_ctrl.masterReadBytes::.cpu.inst        37248                       # Per-master bytes read from memory
system.mem_ctrl.masterReadBytes::.cpu.data      2345664                       # Per-master bytes read from memory
system.mem_ctrl.masterWriteBytes::.writebacks      1255296                       # Per-master bytes write to memory
system.mem_ctrl.masterReadRate::.cpu.inst 586083.407939069904                       # Per-master bytes read from memory rate (Bytes/sec)
system.mem_ctrl.masterReadRate::.cpu.data 36908149.457688748837                       # Per-master bytes read from memory rate (Bytes/sec)
system.mem_ctrl.masterWriteRate::.writebacks 19751615.057245563716                       # Per-master bytes write to memory rate (Bytes/sec)
system.mem_ctrl.masterReadAccesses::.cpu.inst          582                       # Per-master read serviced memory accesses
system.mem_ctrl.masterReadAccesses::.cpu.data        36651                       # Per-master read serviced memory accesses
system.mem_ctrl.masterWriteAccesses::.writebacks        19644                       # Per-master write serviced memory accesses
system.mem_ctrl.masterReadTotalLat::.cpu.inst     18870750                       # Per-master read total memory access latency
system.mem_ctrl.masterReadTotalLat::.cpu.data   1267262500                       # Per-master read total memory access latency
system.mem_ctrl.masterWriteTotalLat::.writebacks 1038744825500                       # Per-master write total memory access latency
system.mem_ctrl.masterReadAvgLat::.cpu.inst     32423.97                       # Per-master read average memory access latency
system.mem_ctrl.masterReadAvgLat::.cpu.data     34576.48                       # Per-master read average memory access latency
system.mem_ctrl.masterWriteAvgLat::.writebacks  52878478.19                       # Per-master write average memory access latency
system.mem_ctrl.pageHitRate                     34.48                       # Row buffer hit rate, read and write combined
system.mem_ctrl.rank1.actEnergy             136181220                       # Energy for activate commands per rank (pJ)
system.mem_ctrl.rank1.preEnergy              72378240                       # Energy for precharge commands per rank (pJ)
system.mem_ctrl.rank1.readEnergy            135081660                       # Energy for read commands per rank (pJ)
system.mem_ctrl.rank1.writeEnergy            51735420                       # Energy for write commands per rank (pJ)
system.mem_ctrl.rank1.refreshEnergy      5016691680.000001                       # Energy for refresh commands per rank (pJ)
system.mem_ctrl.rank1.actBackEnergy       16322915580                       # Energy for active background per rank (pJ)
system.mem_ctrl.rank1.preBackEnergy       10659159360                       # Energy for precharge background per rank (pJ)
system.mem_ctrl.rank1.actPowerDownEnergy            0                       # Energy for active power-down per rank (pJ)
system.mem_ctrl.rank1.prePowerDownEnergy            0                       # Energy for precharge power-down per rank (pJ)
system.mem_ctrl.rank1.selfRefreshEnergy             0                       # Energy for self refresh per rank (pJ)
system.mem_ctrl.rank1.totalEnergy         32394143160                       # Total energy per rank (pJ)
system.mem_ctrl.rank1.averagePower         509.709778                       # Core power per rank (mW)
system.mem_ctrl.rank1.totalIdleTime                 0                       # Total Idle time Per DRAM Rank
system.mem_ctrl.rank1.memoryStateTime::IDLE  27543140750                       # Time in different power states
system.mem_ctrl.rank1.memoryStateTime::REF   2122120000                       # Time in different power states
system.mem_ctrl.rank1.memoryStateTime::SREF            0                       # Time in different power states
system.mem_ctrl.rank1.memoryStateTime::PRE_PDN            0                       # Time in different power states
system.mem_ctrl.rank1.memoryStateTime::ACT  33888833250                       # Time in different power states
system.mem_ctrl.rank1.memoryStateTime::ACT_PDN            0                       # Time in different power states
system.mem_ctrl.rank0.actEnergy             129662400                       # Energy for activate commands per rank (pJ)
system.mem_ctrl.rank0.preEnergy              68917200                       # Energy for precharge commands per rank (pJ)
system.mem_ctrl.rank0.readEnergy            130761960                       # Energy for read commands per rank (pJ)
system.mem_ctrl.rank0.writeEnergy            50649660                       # Energy for write commands per rank (pJ)
system.mem_ctrl.rank0.refreshEnergy      5016691680.000001                       # Energy for refresh commands per rank (pJ)
system.mem_ctrl.rank0.actBackEnergy       15951048720                       # Energy for active background per rank (pJ)
system.mem_ctrl.rank0.preBackEnergy       10972310400                       # Energy for precharge background per rank (pJ)
system.mem_ctrl.rank0.actPowerDownEnergy            0                       # Energy for active power-down per rank (pJ)
system.mem_ctrl.rank0.prePowerDownEnergy            0                       # Energy for precharge power-down per rank (pJ)
system.mem_ctrl.rank0.selfRefreshEnergy             0                       # Energy for self refresh per rank (pJ)
system.mem_ctrl.rank0.totalEnergy         32320042020                       # Total energy per rank (pJ)
system.mem_ctrl.rank0.averagePower         508.543824                       # Core power per rank (mW)
system.mem_ctrl.rank0.totalIdleTime                 0                       # Total Idle time Per DRAM Rank
system.mem_ctrl.rank0.memoryStateTime::IDLE  28361095001                       # Time in different power states
system.mem_ctrl.rank0.memoryStateTime::REF   2122120000                       # Time in different power states
system.mem_ctrl.rank0.memoryStateTime::SREF            0                       # Time in different power states
system.mem_ctrl.rank0.memoryStateTime::PRE_PDN            0                       # Time in different power states
system.mem_ctrl.rank0.memoryStateTime::ACT  33070878999                       # Time in different power states
system.mem_ctrl.rank0.memoryStateTime::ACT_PDN            0                       # Time in different power states
system.mem_ctrl.power_state.pwrStateResidencyTicks::UNDEFINED  63554094000                       # Cumulative time (in ticks) in various power states
system.l2cache.demand_hits::.cpu.inst           53795                       # number of demand (read+write) hits
system.l2cache.demand_hits::.cpu.data            7716                       # number of demand (read+write) hits
system.l2cache.demand_hits::total               61511                       # number of demand (read+write) hits
system.l2cache.overall_hits::.cpu.inst          53795                       # number of overall hits
system.l2cache.overall_hits::.cpu.data           7716                       # number of overall hits
system.l2cache.overall_hits::total              61511                       # number of overall hits
system.l2cache.demand_misses::.cpu.inst           735                       # number of demand (read+write) misses
system.l2cache.demand_misses::.cpu.data         37172                       # number of demand (read+write) misses
system.l2cache.demand_misses::total             37907                       # number of demand (read+write) misses
system.l2cache.overall_misses::.cpu.inst          735                       # number of overall misses
system.l2cache.overall_misses::.cpu.data        37172                       # number of overall misses
system.l2cache.overall_misses::total            37907                       # number of overall misses
system.l2cache.demand_miss_latency::.cpu.inst    447535000                       # number of demand (read+write) miss cycles
system.l2cache.demand_miss_latency::.cpu.data  26784018000                       # number of demand (read+write) miss cycles
system.l2cache.demand_miss_latency::total  27231553000                       # number of demand (read+write) miss cycles
system.l2cache.overall_miss_latency::.cpu.inst    447535000                       # number of overall miss cycles
system.l2cache.overall_miss_latency::.cpu.data  26784018000                       # number of overall miss cycles
system.l2cache.overall_miss_latency::total  27231553000                       # number of overall miss cycles
system.l2cache.demand_accesses::.cpu.inst        54530                       # number of demand (read+write) accesses
system.l2cache.demand_accesses::.cpu.data        44888                       # number of demand (read+write) accesses
system.l2cache.demand_accesses::total           99418                       # number of demand (read+write) accesses
system.l2cache.overall_accesses::.cpu.inst        54530                       # number of overall (read+write) accesses
system.l2cache.overall_accesses::.cpu.data        44888                       # number of overall (read+write) accesses
system.l2cache.overall_accesses::total          99418                       # number of overall (read+write) accesses
system.l2cache.demand_miss_rate::.cpu.inst     0.013479                       # miss rate for demand accesses
system.l2cache.demand_miss_rate::.cpu.data     0.828106                       # miss rate for demand accesses
system.l2cache.demand_miss_rate::total       0.381289                       # miss rate for demand accesses
system.l2cache.overall_miss_rate::.cpu.inst     0.013479                       # miss rate for overall accesses
system.l2cache.overall_miss_rate::.cpu.data     0.828106                       # miss rate for overall accesses
system.l2cache.overall_miss_rate::total      0.381289                       # miss rate for overall accesses
system.l2cache.demand_avg_miss_latency::.cpu.inst 608891.156463                       # average overall miss latency
system.l2cache.demand_avg_miss_latency::.cpu.data 720542.827935                       # average overall miss latency
system.l2cache.demand_avg_miss_latency::total 718377.951302                       # average overall miss latency
system.l2cache.overall_avg_miss_latency::.cpu.inst 608891.156463                       # average overall miss latency
system.l2cache.overall_avg_miss_latency::.cpu.data 720542.827935                       # average overall miss latency
system.l2cache.overall_avg_miss_latency::total 718377.951302                       # average overall miss latency
system.l2cache.blocked_cycles::no_mshrs             0                       # number of cycles access was blocked
system.l2cache.blocked_cycles::no_targets            0                       # number of cycles access was blocked
system.l2cache.blocked::no_mshrs                    0                       # number of cycles access was blocked
system.l2cache.blocked::no_targets                  0                       # number of cycles access was blocked
system.l2cache.avg_blocked_cycles::no_mshrs          nan                       # average number of cycles each access was blocked
system.l2cache.avg_blocked_cycles::no_targets          nan                       # average number of cycles each access was blocked
system.l2cache.writebacks::.writebacks          31902                       # number of writebacks
system.l2cache.writebacks::total                31902                       # number of writebacks
system.l2cache.demand_mshr_misses::.cpu.inst          735                       # number of demand (read+write) MSHR misses
system.l2cache.demand_mshr_misses::.cpu.data        37172                       # number of demand (read+write) MSHR misses
system.l2cache.demand_mshr_misses::total        37907                       # number of demand (read+write) MSHR misses
system.l2cache.overall_mshr_misses::.cpu.inst          735                       # number of overall MSHR misses
system.l2cache.overall_mshr_misses::.cpu.data        37172                       # number of overall MSHR misses
system.l2cache.overall_mshr_misses::total        37907                       # number of overall MSHR misses
system.l2cache.demand_mshr_miss_latency::.cpu.inst    432835000                       # number of demand (read+write) MSHR miss cycles
system.l2cache.demand_mshr_miss_latency::.cpu.data  26040578000                       # number of demand (read+write) MSHR miss cycles
system.l2cache.demand_mshr_miss_latency::total  26473413000                       # number of demand (read+write) MSHR miss cycles
system.l2cache.overall_mshr_miss_latency::.cpu.inst    432835000                       # number of overall MSHR miss cycles
system.l2cache.overall_mshr_miss_latency::.cpu.data  26040578000                       # number of overall MSHR miss cycles
system.l2cache.overall_mshr_miss_latency::total  26473413000                       # number of overall MSHR miss cycles
system.l2cache.demand_mshr_miss_rate::.cpu.inst     0.013479                       # mshr miss rate for demand accesses
system.l2cache.demand_mshr_miss_rate::.cpu.data     0.828106                       # mshr miss rate for demand accesses
system.l2cache.demand_mshr_miss_rate::total     0.381289                       # mshr miss rate for demand accesses
system.l2cache.overall_mshr_miss_rate::.cpu.inst     0.013479                       # mshr miss rate for overall accesses
system.l2cache.overall_mshr_miss_rate::.cpu.data     0.828106                       # mshr miss rate for overall accesses
system.l2cache.overall_mshr_miss_rate::total     0.381289                       # mshr miss rate for overall accesses
system.l2cache.demand_avg_mshr_miss_latency::.cpu.inst 588891.156463                       # average overall mshr miss latency
system.l2cache.demand_avg_mshr_miss_latency::.cpu.data 700542.827935                       # average overall mshr miss latency
system.l2cache.demand_avg_mshr_miss_latency::total 698377.951302                       # average overall mshr miss latency
system.l2cache.overall_avg_mshr_miss_latency::.cpu.inst 588891.156463                       # average overall mshr miss latency
system.l2cache.overall_avg_mshr_miss_latency::.cpu.data 700542.827935                       # average overall mshr miss latency
system.l2cache.overall_avg_mshr_miss_latency::total 698377.951302                       # average overall mshr miss latency
system.l2cache.replacements                     39656                       # number of replacements
system.l2cache.WritebackDirty_hits::.writebacks        41924                       # number of WritebackDirty hits
system.l2cache.WritebackDirty_hits::total        41924                       # number of WritebackDirty hits
system.l2cache.WritebackDirty_accesses::.writebacks        41924                       # number of WritebackDirty accesses(hits+misses)
system.l2cache.WritebackDirty_accesses::total        41924                       # number of WritebackDirty accesses(hits+misses)
system.l2cache.CleanEvict_mshr_misses::.writebacks          570                       # number of CleanEvict MSHR misses
system.l2cache.CleanEvict_mshr_misses::total          570                       # number of CleanEvict MSHR misses
system.l2cache.CleanEvict_mshr_miss_rate::.writebacks          inf                       # mshr miss rate for CleanEvict accesses
system.l2cache.CleanEvict_mshr_miss_rate::total          inf                       # mshr miss rate for CleanEvict accesses
system.l2cache.UpgradeReq_hits::.cpu.data            5                       # number of UpgradeReq hits
system.l2cache.UpgradeReq_hits::total               5                       # number of UpgradeReq hits
system.l2cache.UpgradeReq_misses::.cpu.data            2                       # number of UpgradeReq misses
system.l2cache.UpgradeReq_misses::total             2                       # number of UpgradeReq misses
system.l2cache.UpgradeReq_miss_latency::.cpu.data        92000                       # number of UpgradeReq miss cycles
system.l2cache.UpgradeReq_miss_latency::total        92000                       # number of UpgradeReq miss cycles
system.l2cache.UpgradeReq_accesses::.cpu.data            7                       # number of UpgradeReq accesses(hits+misses)
system.l2cache.UpgradeReq_accesses::total            7                       # number of UpgradeReq accesses(hits+misses)
system.l2cache.UpgradeReq_miss_rate::.cpu.data     0.285714                       # miss rate for UpgradeReq accesses
system.l2cache.UpgradeReq_miss_rate::total     0.285714                       # miss rate for UpgradeReq accesses
system.l2cache.UpgradeReq_avg_miss_latency::.cpu.data        46000                       # average UpgradeReq miss latency
system.l2cache.UpgradeReq_avg_miss_latency::total        46000                       # average UpgradeReq miss latency
system.l2cache.UpgradeReq_mshr_misses::.cpu.data            2                       # number of UpgradeReq MSHR misses
system.l2cache.UpgradeReq_mshr_misses::total            2                       # number of UpgradeReq MSHR misses
system.l2cache.UpgradeReq_mshr_miss_latency::.cpu.data       144000                       # number of UpgradeReq MSHR miss cycles
system.l2cache.UpgradeReq_mshr_miss_latency::total       144000                       # number of UpgradeReq MSHR miss cycles
system.l2cache.UpgradeReq_mshr_miss_rate::.cpu.data     0.285714                       # mshr miss rate for UpgradeReq accesses
system.l2cache.UpgradeReq_mshr_miss_rate::total     0.285714                       # mshr miss rate for UpgradeReq accesses
system.l2cache.UpgradeReq_avg_mshr_miss_latency::.cpu.data        72000                       # average UpgradeReq mshr miss latency
system.l2cache.UpgradeReq_avg_mshr_miss_latency::total        72000                       # average UpgradeReq mshr miss latency
system.l2cache.ReadExReq_hits::.cpu.data         4616                       # number of ReadExReq hits
system.l2cache.ReadExReq_hits::total             4616                       # number of ReadExReq hits
system.l2cache.ReadExReq_misses::.cpu.data        31861                       # number of ReadExReq misses
system.l2cache.ReadExReq_misses::total          31861                       # number of ReadExReq misses
system.l2cache.ReadExReq_miss_latency::.cpu.data  23186289000                       # number of ReadExReq miss cycles
system.l2cache.ReadExReq_miss_latency::total  23186289000                       # number of ReadExReq miss cycles
system.l2cache.ReadExReq_accesses::.cpu.data        36477                       # number of ReadExReq accesses(hits+misses)
system.l2cache.ReadExReq_accesses::total        36477                       # number of ReadExReq accesses(hits+misses)
system.l2cache.ReadExReq_miss_rate::.cpu.data     0.873455                       # miss rate for ReadExReq accesses
system.l2cache.ReadExReq_miss_rate::total     0.873455                       # miss rate for ReadExReq accesses
system.l2cache.ReadExReq_avg_miss_latency::.cpu.data 727732.619817                       # average ReadExReq miss latency
system.l2cache.ReadExReq_avg_miss_latency::total 727732.619817                       # average ReadExReq miss latency
system.l2cache.ReadExReq_mshr_misses::.cpu.data        31861                       # number of ReadExReq MSHR misses
system.l2cache.ReadExReq_mshr_misses::total        31861                       # number of ReadExReq MSHR misses
system.l2cache.ReadExReq_mshr_miss_latency::.cpu.data  22549069000                       # number of ReadExReq MSHR miss cycles
system.l2cache.ReadExReq_mshr_miss_latency::total  22549069000                       # number of ReadExReq MSHR miss cycles
system.l2cache.ReadExReq_mshr_miss_rate::.cpu.data     0.873455                       # mshr miss rate for ReadExReq accesses
system.l2cache.ReadExReq_mshr_miss_rate::total     0.873455                       # mshr miss rate for ReadExReq accesses
system.l2cache.ReadExReq_avg_mshr_miss_latency::.cpu.data 707732.619817                       # average ReadExReq mshr miss latency
system.l2cache.ReadExReq_avg_mshr_miss_latency::total 707732.619817                       # average ReadExReq mshr miss latency
system.l2cache.ReadSharedReq_hits::.cpu.inst        53795                       # number of ReadSharedReq hits
system.l2cache.ReadSharedReq_hits::.cpu.data         3100                       # number of ReadSharedReq hits
system.l2cache.ReadSharedReq_hits::total        56895                       # number of ReadSharedReq hits
system.l2cache.ReadSharedReq_misses::.cpu.inst          735                       # number of ReadSharedReq misses
system.l2cache.ReadSharedReq_misses::.cpu.data         5311                       # number of ReadSharedReq misses
system.l2cache.ReadSharedReq_misses::total         6046                       # number of ReadSharedReq misses
system.l2cache.ReadSharedReq_miss_latency::.cpu.inst    447535000                       # number of ReadSharedReq miss cycles
system.l2cache.ReadSharedReq_miss_latency::.cpu.data   3597729000                       # number of ReadSharedReq miss cycles
system.l2cache.ReadSharedReq_miss_latency::total   4045264000                       # number of ReadSharedReq miss cycles
system.l2cache.ReadSharedReq_accesses::.cpu.inst        54530                       # number of ReadSharedReq accesses(hits+misses)
system.l2cache.ReadSharedReq_accesses::.cpu.data         8411                       # number of ReadSharedReq accesses(hits+misses)
system.l2cache.ReadSharedReq_accesses::total        62941                       # number of ReadSharedReq accesses(hits+misses)
system.l2cache.ReadSharedReq_miss_rate::.cpu.inst     0.013479                       # miss rate for ReadSharedReq accesses
system.l2cache.ReadSharedReq_miss_rate::.cpu.data     0.631435                       # miss rate for ReadSharedReq accesses
system.l2cache.ReadSharedReq_miss_rate::total     0.096058                       # miss rate for ReadSharedReq accesses
system.l2cache.ReadSharedReq_avg_miss_latency::.cpu.inst 608891.156463                       # average ReadSharedReq miss latency
system.l2cache.ReadSharedReq_avg_miss_latency::.cpu.data 677410.845415                       # average ReadSharedReq miss latency
system.l2cache.ReadSharedReq_avg_miss_latency::total 669081.045319                       # average ReadSharedReq miss latency
system.l2cache.ReadSharedReq_mshr_misses::.cpu.inst          735                       # number of ReadSharedReq MSHR misses
system.l2cache.ReadSharedReq_mshr_misses::.cpu.data         5311                       # number of ReadSharedReq MSHR misses
system.l2cache.ReadSharedReq_mshr_misses::total         6046                       # number of ReadSharedReq MSHR misses
system.l2cache.ReadSharedReq_mshr_miss_latency::.cpu.inst    432835000                       # number of ReadSharedReq MSHR miss cycles
system.l2cache.ReadSharedReq_mshr_miss_latency::.cpu.data   3491509000                       # number of ReadSharedReq MSHR miss cycles
system.l2cache.ReadSharedReq_mshr_miss_latency::total   3924344000                       # number of ReadSharedReq MSHR miss cycles
system.l2cache.ReadSharedReq_mshr_miss_rate::.cpu.inst     0.013479                       # mshr miss rate for ReadSharedReq accesses
system.l2cache.ReadSharedReq_mshr_miss_rate::.cpu.data     0.631435                       # mshr miss rate for ReadSharedReq accesses
system.l2cache.ReadSharedReq_mshr_miss_rate::total     0.096058                       # mshr miss rate for ReadSharedReq accesses
system.l2cache.ReadSharedReq_avg_mshr_miss_latency::.cpu.inst 588891.156463                       # average ReadSharedReq mshr miss latency
system.l2cache.ReadSharedReq_avg_mshr_miss_latency::.cpu.data 657410.845415                       # average ReadSharedReq mshr miss latency
system.l2cache.ReadSharedReq_avg_mshr_miss_latency::total 649081.045319                       # average ReadSharedReq mshr miss latency
system.l2cache.power_state.pwrStateResidencyTicks::UNDEFINED  63554094000                       # Cumulative time (in ticks) in various power states
system.l2cache.tags.tagsinuse             3841.463793                       # Cycle average of tags in use
system.l2cache.tags.total_refs                 197426                       # Total number of references to valid blocks.
system.l2cache.tags.sampled_refs                43752                       # Sample count of references to valid blocks.
system.l2cache.tags.avg_refs                 4.512388                       # Average number of references to valid blocks.
[...]
system.DynamicCache.demand_miss_rate::.cpu.data     0.992069                       # miss rate for demand accesses
system.DynamicCache.demand_miss_rate::total     0.990582                       # miss rate for demand accesses
system.DynamicCache.overall_miss_rate::.cpu.inst     0.905132                       # miss rate for overall accesses
system.DynamicCache.overall_miss_rate::.cpu.data     0.992069                       # miss rate for overall accesses
system.DynamicCache.overall_miss_rate::total     0.990582                       # miss rate for overall accesses
system.DynamicCache.demand_avg_miss_latency::.cpu.inst 582800.687285                       # average overall miss latency
system.DynamicCache.demand_avg_miss_latency::.cpu.data 585030.694933                       # average overall miss latency
system.DynamicCache.demand_avg_miss_latency::total 584995.837026                       # average overall miss latency
system.DynamicCache.overall_avg_miss_latency::.cpu.inst 582800.687285                       # average overall miss latency
system.DynamicCache.overall_avg_miss_latency::.cpu.data 585030.694933                       # average overall miss latency
system.DynamicCache.overall_avg_miss_latency::total 584995.837026                       # average overall miss latency
system.DynamicCache.blocked_cycles::no_mshrs            0                       # number of cycles access was blocked
system.DynamicCache.blocked_cycles::no_targets            0                       # number of cycles access was blocked
system.DynamicCache.blocked::no_mshrs               0                       # number of cycles access was blocked
system.DynamicCache.blocked::no_targets             0                       # number of cycles access was blocked
system.DynamicCache.avg_blocked_cycles::no_mshrs          nan                       # average number of cycles each access was blocked
system.DynamicCache.avg_blocked_cycles::no_targets          nan                       # average number of cycles each access was blocked
system.DynamicCache.writebacks::.writebacks        19644                       # number of writebacks
system.DynamicCache.writebacks::total           19644                       # number of writebacks
system.DynamicCache.demand_mshr_misses::.cpu.inst          582                       # number of demand (read+write) MSHR misses
system.DynamicCache.demand_mshr_misses::.cpu.data        36651                       # number of demand (read+write) MSHR misses
system.DynamicCache.demand_mshr_misses::total        37233                       # number of demand (read+write) MSHR misses
system.DynamicCache.overall_mshr_misses::.cpu.inst          582                       # number of overall MSHR misses
system.DynamicCache.overall_mshr_misses::.cpu.data        36651                       # number of overall MSHR misses
system.DynamicCache.overall_mshr_misses::total        37233                       # number of overall MSHR misses
system.DynamicCache.demand_mshr_miss_latency::.cpu.inst    263530000                       # number of demand (read+write) MSHR miss cycles
system.DynamicCache.demand_mshr_miss_latency::.cpu.data  16677330000                       # number of demand (read+write) MSHR miss cycles
system.DynamicCache.demand_mshr_miss_latency::total  16940860000                       # number of demand (read+write) MSHR miss cycles
system.DynamicCache.overall_mshr_miss_latency::.cpu.inst    263530000                       # number of overall MSHR miss cycles
system.DynamicCache.overall_mshr_miss_latency::.cpu.data  16677330000                       # number of overall MSHR miss cycles
system.DynamicCache.overall_mshr_miss_latency::total  16940860000                       # number of overall MSHR miss cycles
system.DynamicCache.demand_mshr_miss_rate::.cpu.inst     0.905132                       # mshr miss rate for demand accesses
system.DynamicCache.demand_mshr_miss_rate::.cpu.data     0.992069                       # mshr miss rate for demand accesses
system.DynamicCache.demand_mshr_miss_rate::total     0.990582                       # mshr miss rate for demand accesses
system.DynamicCache.overall_mshr_miss_rate::.cpu.inst     0.905132                       # mshr miss rate for overall accesses
system.DynamicCache.overall_mshr_miss_rate::.cpu.data     0.992069                       # mshr miss rate for overall accesses
system.DynamicCache.overall_mshr_miss_rate::total     0.990582                       # mshr miss rate for overall accesses
system.DynamicCache.demand_avg_mshr_miss_latency::.cpu.inst 452800.687285                       # average overall mshr miss latency
system.DynamicCache.demand_avg_mshr_miss_latency::.cpu.data 455030.694933                       # average overall mshr miss latency
system.DynamicCache.demand_avg_mshr_miss_latency::total 454995.837026                       # average overall mshr miss latency
system.DynamicCache.overall_avg_mshr_miss_latency::.cpu.inst 452800.687285                       # average overall mshr miss latency
system.DynamicCache.overall_avg_mshr_miss_latency::.cpu.data 455030.694933                       # average overall mshr miss latency
system.DynamicCache.overall_avg_mshr_miss_latency::total 454995.837026                       # average overall mshr miss latency
system.DynamicCache.replacements                56496                       # number of replacements
system.DynamicCache.WritebackDirty_hits::.writebacks        27456                       # number of WritebackDirty hits
system.DynamicCache.WritebackDirty_hits::total        27456                       # number of WritebackDirty hits
system.DynamicCache.WritebackDirty_accesses::.writebacks        27456                       # number of WritebackDirty accesses(hits+misses)
system.DynamicCache.WritebackDirty_accesses::total        27456                       # number of WritebackDirty accesses(hits+misses)
system.DynamicCache.CleanEvict_mshr_misses::.writebacks          808                       # number of CleanEvict MSHR misses
system.DynamicCache.CleanEvict_mshr_misses::total          808                       # number of CleanEvict MSHR misses
system.DynamicCache.CleanEvict_mshr_miss_rate::.writebacks          inf                       # mshr miss rate for CleanEvict accesses
system.DynamicCache.CleanEvict_mshr_miss_rate::total          inf                       # mshr miss rate for CleanEvict accesses
system.DynamicCache.ReadExReq_misses::.cpu.data        31837                       # number of ReadExReq misses
system.DynamicCache.ReadExReq_misses::total        31837                       # number of ReadExReq misses
system.DynamicCache.ReadExReq_miss_latency::.cpu.data  18631390000                       # number of ReadExReq miss cycles
system.DynamicCache.ReadExReq_miss_latency::total  18631390000                       # number of ReadExReq miss cycles
system.DynamicCache.ReadExReq_accesses::.cpu.data        31837                       # number of ReadExReq accesses(hits+misses)
system.DynamicCache.ReadExReq_accesses::total        31837                       # number of ReadExReq accesses(hits+misses)
system.DynamicCache.ReadExReq_miss_rate::.cpu.data            1                       # miss rate for ReadExReq accesses
system.DynamicCache.ReadExReq_miss_rate::total            1                       # miss rate for ReadExReq accesses
system.DynamicCache.ReadExReq_avg_miss_latency::.cpu.data 585211.860414                       # average ReadExReq miss latency
system.DynamicCache.ReadExReq_avg_miss_latency::total 585211.860414                       # average ReadExReq miss latency
system.DynamicCache.ReadExReq_mshr_misses::.cpu.data        31837                       # number of ReadExReq MSHR misses
system.DynamicCache.ReadExReq_mshr_misses::total        31837                       # number of ReadExReq MSHR misses
system.DynamicCache.ReadExReq_mshr_miss_latency::.cpu.data  14492580000                       # number of ReadExReq MSHR miss cycles
system.DynamicCache.ReadExReq_mshr_miss_latency::total  14492580000                       # number of ReadExReq MSHR miss cycles
system.DynamicCache.ReadExReq_mshr_miss_rate::.cpu.data            1                       # mshr miss rate for ReadExReq accesses
system.DynamicCache.ReadExReq_mshr_miss_rate::total            1                       # mshr miss rate for ReadExReq accesses
system.DynamicCache.ReadExReq_avg_mshr_miss_latency::.cpu.data 455211.860414                       # average ReadExReq mshr miss latency
system.DynamicCache.ReadExReq_avg_mshr_miss_latency::total 455211.860414                       # average ReadExReq mshr miss latency
system.DynamicCache.ReadSharedReq_hits::.cpu.inst           61                       # number of ReadSharedReq hits
system.DynamicCache.ReadSharedReq_hits::.cpu.data          293                       # number of ReadSharedReq hits
system.DynamicCache.ReadSharedReq_hits::total          354                       # number of ReadSharedReq hits
system.DynamicCache.ReadSharedReq_misses::.cpu.inst          582                       # number of ReadSharedReq misses
system.DynamicCache.ReadSharedReq_misses::.cpu.data         4814                       # number of ReadSharedReq misses
system.DynamicCache.ReadSharedReq_misses::total         5396                       # number of ReadSharedReq misses
system.DynamicCache.ReadSharedReq_miss_latency::.cpu.inst    339190000                       # number of ReadSharedReq miss cycles
system.DynamicCache.ReadSharedReq_miss_latency::.cpu.data   2810570000                       # number of ReadSharedReq miss cycles
system.DynamicCache.ReadSharedReq_miss_latency::total   3149760000                       # number of ReadSharedReq miss cycles
system.DynamicCache.ReadSharedReq_accesses::.cpu.inst          643                       # number of ReadSharedReq accesses(hits+misses)
system.DynamicCache.ReadSharedReq_accesses::.cpu.data         5107                       # number of ReadSharedReq accesses(hits+misses)
system.DynamicCache.ReadSharedReq_accesses::total         5750                       # number of ReadSharedReq accesses(hits+misses)
system.DynamicCache.ReadSharedReq_miss_rate::.cpu.inst     0.905132                       # miss rate for ReadSharedReq accesses
system.DynamicCache.ReadSharedReq_miss_rate::.cpu.data     0.942628                       # miss rate for ReadSharedReq accesses
system.DynamicCache.ReadSharedReq_miss_rate::total     0.938435                       # miss rate for ReadSharedReq accesses
system.DynamicCache.ReadSharedReq_avg_miss_latency::.cpu.inst 582800.687285                       # average ReadSharedReq miss latency
system.DynamicCache.ReadSharedReq_avg_miss_latency::.cpu.data 583832.571666                       # average ReadSharedReq miss latency
system.DynamicCache.ReadSharedReq_avg_miss_latency::total 583721.275019                       # average ReadSharedReq miss latency
system.DynamicCache.ReadSharedReq_mshr_misses::.cpu.inst          582                       # number of ReadSharedReq MSHR misses
system.DynamicCache.ReadSharedReq_mshr_misses::.cpu.data         4814                       # number of ReadSharedReq MSHR misses
system.DynamicCache.ReadSharedReq_mshr_misses::total         5396                       # number of ReadSharedReq MSHR misses
system.DynamicCache.ReadSharedReq_mshr_miss_latency::.cpu.inst    263530000                       # number of ReadSharedReq MSHR miss cycles
system.DynamicCache.ReadSharedReq_mshr_miss_latency::.cpu.data   2184750000                       # number of ReadSharedReq MSHR miss cycles
system.DynamicCache.ReadSharedReq_mshr_miss_latency::total   2448280000                       # number of ReadSharedReq MSHR miss cycles
system.DynamicCache.ReadSharedReq_mshr_miss_rate::.cpu.inst     0.905132                       # mshr miss rate for ReadSharedReq accesses
system.DynamicCache.ReadSharedReq_mshr_miss_rate::.cpu.data     0.942628                       # mshr miss rate for ReadSharedReq accesses
system.DynamicCache.ReadSharedReq_mshr_miss_rate::total     0.938435                       # mshr miss rate for ReadSharedReq accesses
system.DynamicCache.ReadSharedReq_avg_mshr_miss_latency::.cpu.inst 452800.687285                       # average ReadSharedReq mshr miss latency
system.DynamicCache.ReadSharedReq_avg_mshr_miss_latency::.cpu.data 453832.571666                       # average ReadSharedReq mshr miss latency
system.DynamicCache.ReadSharedReq_avg_mshr_miss_latency::total 453721.275019                       # average ReadSharedReq mshr miss latency
system.DynamicCache.power_state.pwrStateResidencyTicks::UNDEFINED  63554094000                       # Cumulative time (in ticks) in various power states
system.DynamicCache.tags.tagsinuse        7248.636696                       # Cycle average of tags in use
system.DynamicCache.tags.total_refs             65469                       # Total number of references to valid blocks.
system.DynamicCache.tags.sampled_refs           64688                       # Sample count of references to valid blocks.
system.DynamicCache.tags.avg_refs            1.012073                       # Average number of references to valid blocks.
system.DynamicCache.tags.warmup_cycle          527000                       # Cycle when the warmup percentage was hit.
system.DynamicCache.tags.occ_blocks::.writebacks  5113.073362                       # Average occupied blocks per requestor
system.DynamicCache.tags.occ_blocks::.cpu.inst    67.004373                       # Average occupied blocks per requestor
system.DynamicCache.tags.occ_blocks::.cpu.data  2068.558961                       # Average occupied blocks per requestor
system.DynamicCache.tags.occ_percent::.writebacks     0.624154                       # Average percentage of cache occupancy
system.DynamicCache.tags.occ_percent::.cpu.inst     0.008179                       # Average percentage of cache occupancy
system.DynamicCache.tags.occ_percent::.cpu.data     0.252510                       # Average percentage of cache occupancy
system.DynamicCache.tags.occ_percent::total     0.884843                       # Average percentage of cache occupancy
system.DynamicCache.tags.occ_task_id_blocks::1024         8192                       # Occupied blocks per task id
system.DynamicCache.tags.age_task_id_blocks_1024::0            7                       # Occupied blocks per task id
system.DynamicCache.tags.age_task_id_blocks_1024::1           53                       # Occupied blocks per task id
system.DynamicCache.tags.age_task_id_blocks_1024::2          556                       # Occupied blocks per task id
system.DynamicCache.tags.age_task_id_blocks_1024::3         5046                       # Occupied blocks per task id
system.DynamicCache.tags.age_task_id_blocks_1024::4         2530                       # Occupied blocks per task id
system.DynamicCache.tags.occ_task_id_percent::1024            1                       # Percentage of cache occupancy per task id
system.DynamicCache.tags.tag_accesses          130965                       # Number of tag accesses
system.DynamicCache.tags.data_accesses         130965                       # Number of data accesses
system.DynamicCache.tags.power_state.pwrStateResidencyTicks::UNDEFINED  63554094000                       # Cumulative time (in ticks) in various power states
system.l2bar.trans_dist::ReadResp               62941                       # Transaction distribution
system.l2bar.trans_dist::WritebackDirty        120926                       # Transaction distribution
system.l2bar.trans_dist::CleanEvict             81248                       # Transaction distribution
system.l2bar.trans_dist::UpgradeReq                 7                       # Transaction distribution
system.l2bar.trans_dist::UpgradeResp                7                       # Transaction distribution
system.l2bar.trans_dist::ReadExReq              36477                       # Transaction distribution
system.l2bar.trans_dist::ReadExResp             36477                       # Transaction distribution
system.l2bar.trans_dist::ReadSharedReq          62941                       # Transaction distribution
system.l2bar.pkt_count_system.dcache.mem_side::system.l2cache.cpu_side       134166                       # Packet count per connected master and slave (bytes)
system.l2bar.pkt_count_system.icache.mem_side::system.l2cache.cpu_side       163257                       # Packet count per connected master and slave (bytes)
system.l2bar.pkt_count::total                  297423                       # Packet count per connected master and slave (bytes)
system.l2bar.pkt_size_system.dcache.mem_side::system.l2cache.cpu_side      5555968                       # Cumulative packet size per connected master and slave (bytes)
system.l2bar.pkt_size_system.icache.mem_side::system.l2cache.cpu_side      3489920                       # Cumulative packet size per connected master and slave (bytes)
system.l2bar.pkt_size::total                  9045888                       # Cumulative packet size per connected master and slave (bytes)
system.l2bar.snoops                            103601                       # Total snoops (count)
system.l2bar.snoopTraffic                     5056128                       # Total snoop traffic (bytes)
system.l2bar.snoop_fanout::samples             203026                       # Request fanout histogram
system.l2bar.snoop_fanout::mean              0.051688                       # Request fanout histogram
system.l2bar.snoop_fanout::stdev             0.221397                       # Request fanout histogram
system.l2bar.snoop_fanout::underflows               0      0.00%      0.00% # Request fanout histogram
system.l2bar.snoop_fanout::0                   192532     94.83%     94.83% # Request fanout histogram
system.l2bar.snoop_fanout::1                    10494      5.17%    100.00% # Request fanout histogram
system.l2bar.snoop_fanout::2                        0      0.00%    100.00% # Request fanout histogram
system.l2bar.snoop_fanout::overflows                0      0.00%    100.00% # Request fanout histogram
system.l2bar.snoop_fanout::min_value                0                       # Request fanout histogram
system.l2bar.snoop_fanout::max_value                1                       # Request fanout histogram
system.l2bar.snoop_fanout::total               203026                       # Request fanout histogram
system.l2bar.reqLayer0.occupancy            281846000                       # Layer occupancy (ticks)
system.l2bar.reqLayer0.utilization                0.4                       # Layer utilization (%)
system.l2bar.respLayer1.occupancy           163590000                       # Layer occupancy (ticks)
system.l2bar.respLayer1.utilization               0.3                       # Layer utilization (%)
system.l2bar.respLayer0.occupancy           134671000                       # Layer occupancy (ticks)
system.l2bar.respLayer0.utilization               0.2                       # Layer utilization (%)
system.l2bar.power_state.pwrStateResidencyTicks::UNDEFINED  63554094000                       # Cumulative time (in ticks) in various power states
system.cpu.dtb.walker.power_state.pwrStateResidencyTicks::UNDEFINED  63554094000                       # Cumulative time (in ticks) in various power states
system.cpu.interrupts.clk_domain.clock          16000                       # Clock period in ticks
system.cpu.itb.walker.power_state.pwrStateResidencyTicks::UNDEFINED  63554094000                       # Cumulative time (in ticks) in various power states
system.cpu.power_state.numTransitions               1                       # Number of power state transitions
system.cpu.power_state.pwrStateResidencyTicks::ON  63554094000                       # Cumulative time (in ticks) in various power states

---------- End Simulation Statistics   ----------
