
---------- Begin Simulation Statistics ----------
final_tick                                 3947742000                       # Number of ticks from beginning of simulation (restored from checkpoints and never reset)
host_inst_rate                                  99890                       # Simulator instruction rate (inst/s)
host_mem_usage                               34290148                       # Number of bytes of host memory used
host_op_rate                                   201189                       # Simulator op (including micro ops) rate (op/s)
host_seconds                                    10.04                       # Real time elapsed on the host
host_tick_rate                              393147928                       # Simulator tick rate (ticks/s)
sim_freq                                 1000000000000                       # Frequency of simulated ticks
sim_insts                                     1002999                       # Number of instructions simulated
sim_ops                                       2020199                       # Number of ops (including micro ops) simulated
sim_seconds                                  0.003948                       # Number of seconds simulated
sim_ticks                                  3947742000                       # Number of ticks simulated
system.cpu.Branches                            240618                       # Number of branches fetched
system.cpu.committedInsts                     1002999                       # Number of instructions committed
system.cpu.committedOps                       2020199                       # Number of ops (including micro ops) committed
system.cpu.dtb.rdAccesses                      178450                       # TLB accesses on read requests
system.cpu.dtb.rdMisses                           266                       # TLB misses on read requests
system.cpu.dtb.wrAccesses                      135882                       # TLB accesses on write requests
system.cpu.dtb.wrMisses                           203                       # TLB misses on write requests
system.cpu.idle_fraction                            0                       # Percentage of idle cycles
system.cpu.itb.rdAccesses                           0                       # TLB accesses on read requests
system.cpu.itb.rdMisses                             0                       # TLB misses on read requests
system.cpu.itb.wrAccesses                     1297454                       # TLB accesses on write requests
system.cpu.itb.wrMisses                           178                       # TLB misses on write requests
system.cpu.not_idle_fraction                        1                       # Percentage of non-idle cycles
system.cpu.numCycles                          3947731                       # number of cpu cycles simulated
system.cpu.numWorkItemsCompleted                    0                       # number of work items this cpu completed
system.cpu.numWorkItemsStarted                      0                       # number of work items this cpu started
system.cpu.num_busy_cycles                    3947731                       # Number of busy cycles
system.cpu.num_cc_register_reads              1579059                       # number of times the CC registers were read
system.cpu.num_cc_register_writes              732123                       # number of times the CC registers were written
system.cpu.num_conditional_control_insts       202926                       # number of instructions that are conditional controls
system.cpu.num_fp_alu_accesses                  91342                       # Number of float alu accesses
system.cpu.num_fp_insts                         91342                       # number of float instructions
system.cpu.num_fp_register_reads               145075                       # number of times the floating registers were read
system.cpu.num_fp_register_writes               65447                       # number of times the floating registers were written
system.cpu.num_func_calls                       28341                       # number of times a function call or return occured
system.cpu.num_idle_cycles                          0                       # Number of idle cycles
system.cpu.num_int_alu_accesses               1943188                       # Number of integer alu accesses
system.cpu.num_int_insts                      1943188                       # number of integer instructions
system.cpu.num_int_register_reads             3546721                       # number of times the integer registers were read
system.cpu.num_int_register_writes            1572012                       # number of times the integer registers were written
system.cpu.num_load_insts                      177584                       # Number of load instructions
system.cpu.num_mem_refs                        313448                       # number of memory refs
system.cpu.num_store_insts                     135864                       # Number of store instructions
system.cpu.num_vec_alu_accesses                     0                       # Number of vector alu accesses
system.cpu.num_vec_insts                            0                       # number of vector instructions
system.cpu.num_vec_register_reads                   0                       # number of times the vector registers were read
system.cpu.num_vec_register_writes                  0                       # number of times the vector registers were written
system.cpu.op_class::No_OpClass                 23148      1.15%      1.15% # Class of executed instruction
system.cpu.op_class::IntAlu                   1619075     80.14%     81.29% # Class of executed instruction
system.cpu.op_class::IntMult                     1189      0.06%     81.35% # Class of executed instruction
system.cpu.op_class::IntDiv                      1176      0.06%     81.40% # Class of executed instruction
system.cpu.op_class::FloatAdd                     782      0.04%     81.44% # Class of executed instruction
system.cpu.op_class::FloatCmp                       0      0.00%     81.44% # Class of executed instruction
system.cpu.op_class::FloatCvt                       0      0.00%     81.44% # Class of executed instruction
system.cpu.op_class::FloatMult                      0      0.00%     81.44% # Class of executed instruction
system.cpu.op_class::FloatMultAcc                   0      0.00%     81.44% # Class of executed instruction
system.cpu.op_class::FloatDiv                       0      0.00%     81.44% # Class of executed instruction
system.cpu.op_class::FloatMisc                      0      0.00%     81.44% # Class of executed instruction
system.cpu.op_class::FloatSqrt                      0      0.00%     81.44% # Class of executed instruction
system.cpu.op_class::SimdAdd                     1870      0.09%     81.53% # Class of executed instruction
system.cpu.op_class::SimdAddAcc                     0      0.00%     81.53% # Class of executed instruction
system.cpu.op_class::SimdAlu                    30975      1.53%     83.07% # Class of executed instruction
system.cpu.op_class::SimdCmp                       50      0.00%     83.07% # Class of executed instruction
system.cpu.op_class::SimdCvt                    12648      0.63%     83.70% # Class of executed instruction
system.cpu.op_class::SimdMisc                   15123      0.75%     84.45% # Class of executed instruction
system.cpu.op_class::SimdMult                       0      0.00%     84.45% # Class of executed instruction
system.cpu.op_class::SimdMultAcc                    0      0.00%     84.45% # Class of executed instruction
system.cpu.op_class::SimdShift                    771      0.04%     84.48% # Class of executed instruction
system.cpu.op_class::SimdShiftAcc                   0      0.00%     84.48% # Class of executed instruction
system.cpu.op_class::SimdDiv                        0      0.00%     84.48% # Class of executed instruction
system.cpu.op_class::SimdSqrt                       0      0.00%     84.48% # Class of executed instruction
system.cpu.op_class::SimdFloatAdd                   2      0.00%     84.48% # Class of executed instruction
system.cpu.op_class::SimdFloatAlu                   0      0.00%     84.48% # Class of executed instruction
system.cpu.op_class::SimdFloatCmp                   2      0.00%     84.48% # Class of executed instruction
system.cpu.op_class::SimdFloatCvt                  17      0.00%     84.48% # Class of executed instruction
system.cpu.op_class::SimdFloatDiv                   1      0.00%     84.48% # Class of executed instruction
system.cpu.op_class::SimdFloatMisc                  0      0.00%     84.48% # Class of executed instruction
system.cpu.op_class::SimdFloatMult                 12      0.00%     84.48% # Class of executed instruction
system.cpu.op_class::SimdFloatMultAcc               0      0.00%     84.48% # Class of executed instruction
system.cpu.op_class::SimdFloatSqrt                  0      0.00%     84.48% # Class of executed instruction
system.cpu.op_class::SimdReduceAdd                  0      0.00%     84.48% # Class of executed instruction
system.cpu.op_class::SimdReduceAlu                  0      0.00%     84.48% # Class of executed instruction
system.cpu.op_class::SimdReduceCmp                  0      0.00%     84.48% # Class of executed instruction
system.cpu.op_class::SimdFloatReduceAdd             0      0.00%     84.48% # Class of executed instruction
system.cpu.op_class::SimdFloatReduceCmp             0      0.00%     84.48% # Class of executed instruction
system.cpu.op_class::SimdAes                        0      0.00%     84.48% # Class of executed instruction
system.cpu.op_class::SimdAesMix                     0      0.00%     84.48% # Class of executed instruction
system.cpu.op_class::SimdSha1Hash                   0      0.00%     84.48% # Class of executed instruction
system.cpu.op_class::SimdSha1Hash2                  0      0.00%     84.48% # Class of executed instruction
system.cpu.op_class::SimdSha256Hash                 0      0.00%     84.48% # Class of executed instruction
system.cpu.op_class::SimdSha256Hash2                0      0.00%     84.48% # Class of executed instruction
system.cpu.op_class::SimdShaSigma2                  0      0.00%     84.48% # Class of executed instruction
system.cpu.op_class::SimdShaSigma3                  0      0.00%     84.48% # Class of executed instruction
system.cpu.op_class::SimdPredAlu                    0      0.00%     84.48% # Class of executed instruction
system.cpu.op_class::MemRead                   165560      8.19%     92.68% # Class of executed instruction
system.cpu.op_class::MemWrite                  120253      5.95%     98.63% # Class of executed instruction
system.cpu.op_class::FloatMemRead               12024      0.60%     99.23% # Class of executed instruction
system.cpu.op_class::FloatMemWrite              15611      0.77%    100.00% # Class of executed instruction
system.cpu.op_class::IprAccess                      0      0.00%    100.00% # Class of executed instruction
system.cpu.op_class::InstPrefetch                   0      0.00%    100.00% # Class of executed instruction
system.cpu.op_class::total                    2020289                       # Class of executed instruction
system.cpu.workload.numSyscalls                    31                       # Number of system calls
system.dynamic_cache.flushTicks                     0                       # Ticks taken to flush
system.dynamic_cache.numFlushes                     0                       # Number of Flushes Taken
system.cache_small.demand_hits::.cpu.inst         4365                       # number of demand (read+write) hits
system.cache_small.demand_hits::.cpu.data         1864                       # number of demand (read+write) hits
system.cache_small.demand_hits::total            6229                       # number of demand (read+write) hits
system.cache_small.overall_hits::.cpu.inst         4365                       # number of overall hits
system.cache_small.overall_hits::.cpu.data         1864                       # number of overall hits
system.cache_small.overall_hits::total           6229                       # number of overall hits
system.cache_small.demand_misses::.cpu.inst         1900                       # number of demand (read+write) misses
system.cache_small.demand_misses::.cpu.data         4757                       # number of demand (read+write) misses
system.cache_small.demand_misses::total          6657                       # number of demand (read+write) misses
system.cache_small.overall_misses::.cpu.inst         1900                       # number of overall misses
system.cache_small.overall_misses::.cpu.data         4757                       # number of overall misses
system.cache_small.overall_misses::total         6657                       # number of overall misses
system.cache_small.demand_miss_latency::.cpu.inst    118009000                       # number of demand (read+write) miss cycles
system.cache_small.demand_miss_latency::.cpu.data    290581000                       # number of demand (read+write) miss cycles
system.cache_small.demand_miss_latency::total    408590000                       # number of demand (read+write) miss cycles
system.cache_small.overall_miss_latency::.cpu.inst    118009000                       # number of overall miss cycles
system.cache_small.overall_miss_latency::.cpu.data    290581000                       # number of overall miss cycles
system.cache_small.overall_miss_latency::total    408590000                       # number of overall miss cycles
system.cache_small.demand_accesses::.cpu.inst         6265                       # number of demand (read+write) accesses
system.cache_small.demand_accesses::.cpu.data         6621                       # number of demand (read+write) accesses
system.cache_small.demand_accesses::total        12886                       # number of demand (read+write) accesses
system.cache_small.overall_accesses::.cpu.inst         6265                       # number of overall (read+write) accesses
system.cache_small.overall_accesses::.cpu.data         6621                       # number of overall (read+write) accesses
system.cache_small.overall_accesses::total        12886                       # number of overall (read+write) accesses
system.cache_small.demand_miss_rate::.cpu.inst     0.303272                       # miss rate for demand accesses
system.cache_small.demand_miss_rate::.cpu.data     0.718472                       # miss rate for demand accesses
system.cache_small.demand_miss_rate::total     0.516607                       # miss rate for demand accesses
system.cache_small.overall_miss_rate::.cpu.inst     0.303272                       # miss rate for overall accesses
system.cache_small.overall_miss_rate::.cpu.data     0.718472                       # miss rate for overall accesses
system.cache_small.overall_miss_rate::total     0.516607                       # miss rate for overall accesses
system.cache_small.demand_avg_miss_latency::.cpu.inst        62110                       # average overall miss latency
system.cache_small.demand_avg_miss_latency::.cpu.data 61084.927475                       # average overall miss latency
system.cache_small.demand_avg_miss_latency::total 61377.497371                       # average overall miss latency
system.cache_small.overall_avg_miss_latency::.cpu.inst        62110                       # average overall miss latency
system.cache_small.overall_avg_miss_latency::.cpu.data 61084.927475                       # average overall miss latency
system.cache_small.overall_avg_miss_latency::total 61377.497371                       # average overall miss latency
system.cache_small.blocked_cycles::no_mshrs            0                       # number of cycles access was blocked
system.cache_small.blocked_cycles::no_targets            0                       # number of cycles access was blocked
system.cache_small.blocked::no_mshrs                0                       # number of cycles access was blocked
system.cache_small.blocked::no_targets              0                       # number of cycles access was blocked
system.cache_small.avg_blocked_cycles::no_mshrs          nan                       # average number of cycles each access was blocked
system.cache_small.avg_blocked_cycles::no_targets          nan                       # average number of cycles each access was blocked
system.cache_small.writebacks::.writebacks         1751                       # number of writebacks
system.cache_small.writebacks::total             1751                       # number of writebacks
system.cache_small.demand_mshr_misses::.cpu.inst         1900                       # number of demand (read+write) MSHR misses
system.cache_small.demand_mshr_misses::.cpu.data         4757                       # number of demand (read+write) MSHR misses
system.cache_small.demand_mshr_misses::total         6657                       # number of demand (read+write) MSHR misses
system.cache_small.overall_mshr_misses::.cpu.inst         1900                       # number of overall MSHR misses
system.cache_small.overall_mshr_misses::.cpu.data         4757                       # number of overall MSHR misses
system.cache_small.overall_mshr_misses::total         6657                       # number of overall MSHR misses
system.cache_small.demand_mshr_miss_latency::.cpu.inst    114209000                       # number of demand (read+write) MSHR miss cycles
system.cache_small.demand_mshr_miss_latency::.cpu.data    281067000                       # number of demand (read+write) MSHR miss cycles
system.cache_small.demand_mshr_miss_latency::total    395276000                       # number of demand (read+write) MSHR miss cycles
system.cache_small.overall_mshr_miss_latency::.cpu.inst    114209000                       # number of overall MSHR miss cycles
system.cache_small.overall_mshr_miss_latency::.cpu.data    281067000                       # number of overall MSHR miss cycles
system.cache_small.overall_mshr_miss_latency::total    395276000                       # number of overall MSHR miss cycles
system.cache_small.demand_mshr_miss_rate::.cpu.inst     0.303272                       # mshr miss rate for demand accesses
system.cache_small.demand_mshr_miss_rate::.cpu.data     0.718472                       # mshr miss rate for demand accesses
system.cache_small.demand_mshr_miss_rate::total     0.516607                       # mshr miss rate for demand accesses
system.cache_small.overall_mshr_miss_rate::.cpu.inst     0.303272                       # mshr miss rate for overall accesses
system.cache_small.overall_mshr_miss_rate::.cpu.data     0.718472                       # mshr miss rate for overall accesses
system.cache_small.overall_mshr_miss_rate::total     0.516607                       # mshr miss rate for overall accesses
system.cache_small.demand_avg_mshr_miss_latency::.cpu.inst        60110                       # average overall mshr miss latency
system.cache_small.demand_avg_mshr_miss_latency::.cpu.data 59084.927475                       # average overall mshr miss latency
system.cache_small.demand_avg_mshr_miss_latency::total 59377.497371                       # average overall mshr miss latency
system.cache_small.overall_avg_mshr_miss_latency::.cpu.inst        60110                       # average overall mshr miss latency
system.cache_small.overall_avg_mshr_miss_latency::.cpu.data 59084.927475                       # average overall mshr miss latency
system.cache_small.overall_avg_mshr_miss_latency::total 59377.497371                       # average overall mshr miss latency
system.cache_small.replacements                  3596                       # number of replacements
system.cache_small.ReadReq_hits::.cpu.inst         4365                       # number of ReadReq hits
system.cache_small.ReadReq_hits::.cpu.data         1864                       # number of ReadReq hits
system.cache_small.ReadReq_hits::total           6229                       # number of ReadReq hits
system.cache_small.ReadReq_misses::.cpu.inst         1900                       # number of ReadReq misses
system.cache_small.ReadReq_misses::.cpu.data         4757                       # number of ReadReq misses
system.cache_small.ReadReq_misses::total         6657                       # number of ReadReq misses
system.cache_small.ReadReq_miss_latency::.cpu.inst    118009000                       # number of ReadReq miss cycles
system.cache_small.ReadReq_miss_latency::.cpu.data    290581000                       # number of ReadReq miss cycles
system.cache_small.ReadReq_miss_latency::total    408590000                       # number of ReadReq miss cycles
system.cache_small.ReadReq_accesses::.cpu.inst         6265                       # number of ReadReq accesses(hits+misses)
system.cache_small.ReadReq_accesses::.cpu.data         6621                       # number of ReadReq accesses(hits+misses)
system.cache_small.ReadReq_accesses::total        12886                       # number of ReadReq accesses(hits+misses)
system.cache_small.ReadReq_miss_rate::.cpu.inst     0.303272                       # miss rate for ReadReq accesses
system.cache_small.ReadReq_miss_rate::.cpu.data     0.718472                       # miss rate for ReadReq accesses
system.cache_small.ReadReq_miss_rate::total     0.516607                       # miss rate for ReadReq accesses
system.cache_small.ReadReq_avg_miss_latency::.cpu.inst        62110                       # average ReadReq miss latency
system.cache_small.ReadReq_avg_miss_latency::.cpu.data 61084.927475                       # average ReadReq miss latency
system.cache_small.ReadReq_avg_miss_latency::total 61377.497371                       # average ReadReq miss latency
system.cache_small.ReadReq_mshr_misses::.cpu.inst         1900                       # number of ReadReq MSHR misses
system.cache_small.ReadReq_mshr_misses::.cpu.data         4757                       # number of ReadReq MSHR misses
system.cache_small.ReadReq_mshr_misses::total         6657                       # number of ReadReq MSHR misses
system.cache_small.ReadReq_mshr_miss_latency::.cpu.inst    114209000                       # number of ReadReq MSHR miss cycles
system.cache_small.ReadReq_mshr_miss_latency::.cpu.data    281067000                       # number of ReadReq MSHR miss cycles
system.cache_small.ReadReq_mshr_miss_latency::total    395276000                       # number of ReadReq MSHR miss cycles
system.cache_small.ReadReq_mshr_miss_rate::.cpu.inst     0.303272                       # mshr miss rate for ReadReq accesses
system.cache_small.ReadReq_mshr_miss_rate::.cpu.data     0.718472                       # mshr miss rate for ReadReq accesses
system.cache_small.ReadReq_mshr_miss_rate::total     0.516607                       # mshr miss rate for ReadReq accesses
system.cache_small.ReadReq_avg_mshr_miss_latency::.cpu.inst        60110                       # average ReadReq mshr miss latency
system.cache_small.ReadReq_avg_mshr_miss_latency::.cpu.data 59084.927475                       # average ReadReq mshr miss latency
system.cache_small.ReadReq_avg_mshr_miss_latency::total 59377.497371                       # average ReadReq mshr miss latency
system.cache_small.WritebackDirty_hits::.writebacks         4606                       # number of WritebackDirty hits
system.cache_small.WritebackDirty_hits::total         4606                       # number of WritebackDirty hits
system.cache_small.WritebackDirty_accesses::.writebacks         4606                       # number of WritebackDirty accesses(hits+misses)
system.cache_small.WritebackDirty_accesses::total         4606                       # number of WritebackDirty accesses(hits+misses)
system.cache_small.power_state.pwrStateResidencyTicks::UNDEFINED   3947742000                       # Cumulative time (in ticks) in various power states
system.cache_small.tags.tagsinuse         2765.068072                       # Cycle average of tags in use
system.cache_small.tags.total_refs               7348                       # Total number of references to valid blocks.
system.cache_small.tags.sampled_refs             3596                       # Sample count of references to valid blocks.
system.cache_small.tags.avg_refs             2.043382                       # Average number of references to valid blocks.
system.cache_small.tags.warmup_cycle            76000                       # Cycle when the warmup percentage was hit.
system.cache_small.tags.occ_blocks::.writebacks    86.850744                       # Average occupied blocks per requestor
system.cache_small.tags.occ_blocks::.cpu.inst   585.457927                       # Average occupied blocks per requestor
system.cache_small.tags.occ_blocks::.cpu.data  2092.759401                       # Average occupied blocks per requestor
system.cache_small.tags.occ_percent::.writebacks     0.021204                       # Average percentage of cache occupancy
system.cache_small.tags.occ_percent::.cpu.inst     0.142934                       # Average percentage of cache occupancy
system.cache_small.tags.occ_percent::.cpu.data     0.510928                       # Average percentage of cache occupancy
system.cache_small.tags.occ_percent::total     0.675065                       # Average percentage of cache occupancy
system.cache_small.tags.occ_task_id_blocks::1024         3419                       # Occupied blocks per task id
system.cache_small.tags.age_task_id_blocks_1024::2          242                       # Occupied blocks per task id
system.cache_small.tags.age_task_id_blocks_1024::3         3177                       # Occupied blocks per task id
system.cache_small.tags.occ_task_id_percent::1024     0.834717                       # Percentage of cache occupancy per task id
system.cache_small.tags.tag_accesses            24507                       # Number of tag accesses
system.cache_small.tags.data_accesses           24507                       # Number of data accesses
system.cache_small.tags.power_state.pwrStateResidencyTicks::UNDEFINED   3947742000                       # Cumulative time (in ticks) in various power states
system.icache.demand_hits::.cpu.inst          1287143                       # number of demand (read+write) hits
system.icache.demand_hits::total              1287143                       # number of demand (read+write) hits
system.icache.overall_hits::.cpu.inst         1287143                       # number of overall hits
system.icache.overall_hits::total             1287143                       # number of overall hits
system.icache.demand_misses::.cpu.inst          10311                       # number of demand (read+write) misses
system.icache.demand_misses::total              10311                       # number of demand (read+write) misses
system.icache.overall_misses::.cpu.inst         10311                       # number of overall misses
system.icache.overall_misses::total             10311                       # number of overall misses
system.icache.demand_miss_latency::.cpu.inst    294147000                       # number of demand (read+write) miss cycles
system.icache.demand_miss_latency::total    294147000                       # number of demand (read+write) miss cycles
system.icache.overall_miss_latency::.cpu.inst    294147000                       # number of overall miss cycles
system.icache.overall_miss_latency::total    294147000                       # number of overall miss cycles
system.icache.demand_accesses::.cpu.inst      1297454                       # number of demand (read+write) accesses
system.icache.demand_accesses::total          1297454                       # number of demand (read+write) accesses
system.icache.overall_accesses::.cpu.inst      1297454                       # number of overall (read+write) accesses
system.icache.overall_accesses::total         1297454                       # number of overall (read+write) accesses
system.icache.demand_miss_rate::.cpu.inst     0.007947                       # miss rate for demand accesses
system.icache.demand_miss_rate::total        0.007947                       # miss rate for demand accesses
system.icache.overall_miss_rate::.cpu.inst     0.007947                       # miss rate for overall accesses
system.icache.overall_miss_rate::total       0.007947                       # miss rate for overall accesses
system.icache.demand_avg_miss_latency::.cpu.inst 28527.494908                       # average overall miss latency
system.icache.demand_avg_miss_latency::total 28527.494908                       # average overall miss latency
system.icache.overall_avg_miss_latency::.cpu.inst 28527.494908                       # average overall miss latency
system.icache.overall_avg_miss_latency::total 28527.494908                       # average overall miss latency
system.icache.blocked_cycles::no_mshrs              0                       # number of cycles access was blocked
system.icache.blocked_cycles::no_targets            0                       # number of cycles access was blocked
system.icache.blocked::no_mshrs                     0                       # number of cycles access was blocked
system.icache.blocked::no_targets                   0                       # number of cycles access was blocked
system.icache.avg_blocked_cycles::no_mshrs          nan                       # average number of cycles each access was blocked
system.icache.avg_blocked_cycles::no_targets          nan                       # average number of cycles each access was blocked
system.icache.demand_mshr_misses::.cpu.inst        10311                       # number of demand (read+write) MSHR misses
system.icache.demand_mshr_misses::total         10311                       # number of demand (read+write) MSHR misses
system.icache.overall_mshr_misses::.cpu.inst        10311                       # number of overall MSHR misses
system.icache.overall_mshr_misses::total        10311                       # number of overall MSHR misses
system.icache.demand_mshr_miss_latency::.cpu.inst    273525000                       # number of demand (read+write) MSHR miss cycles
system.icache.demand_mshr_miss_latency::total    273525000                       # number of demand (read+write) MSHR miss cycles
system.icache.overall_mshr_miss_latency::.cpu.inst    273525000                       # number of overall MSHR miss cycles
system.icache.overall_mshr_miss_latency::total    273525000                       # number of overall MSHR miss cycles
system.icache.demand_mshr_miss_rate::.cpu.inst     0.007947                       # mshr miss rate for demand accesses
system.icache.demand_mshr_miss_rate::total     0.007947                       # mshr miss rate for demand accesses
system.icache.overall_mshr_miss_rate::.cpu.inst     0.007947                       # mshr miss rate for overall accesses
system.icache.overall_mshr_miss_rate::total     0.007947                       # mshr miss rate for overall accesses
system.icache.demand_avg_mshr_miss_latency::.cpu.inst 26527.494908                       # average overall mshr miss latency
system.icache.demand_avg_mshr_miss_latency::total 26527.494908                       # average overall mshr miss latency
system.icache.overall_avg_mshr_miss_latency::.cpu.inst 26527.494908                       # average overall mshr miss latency
system.icache.overall_avg_mshr_miss_latency::total 26527.494908                       # average overall mshr miss latency
system.icache.replacements                      10055                       # number of replacements
system.icache.ReadReq_hits::.cpu.inst         1287143                       # number of ReadReq hits
system.icache.ReadReq_hits::total             1287143                       # number of ReadReq hits
system.icache.ReadReq_misses::.cpu.inst         10311                       # number of ReadReq misses
system.icache.ReadReq_misses::total             10311                       # number of ReadReq misses
system.icache.ReadReq_miss_latency::.cpu.inst    294147000                       # number of ReadReq miss cycles
system.icache.ReadReq_miss_latency::total    294147000                       # number of ReadReq miss cycles
system.icache.ReadReq_accesses::.cpu.inst      1297454                       # number of ReadReq accesses(hits+misses)
system.icache.ReadReq_accesses::total         1297454                       # number of ReadReq accesses(hits+misses)
system.icache.ReadReq_miss_rate::.cpu.inst     0.007947                       # miss rate for ReadReq accesses
system.icache.ReadReq_miss_rate::total       0.007947                       # miss rate for ReadReq accesses
system.icache.ReadReq_avg_miss_latency::.cpu.inst 28527.494908                       # average ReadReq miss latency
system.icache.ReadReq_avg_miss_latency::total 28527.494908                       # average ReadReq miss latency
system.icache.ReadReq_mshr_misses::.cpu.inst        10311                       # number of ReadReq MSHR misses
system.icache.ReadReq_mshr_misses::total        10311                       # number of ReadReq MSHR misses
system.icache.ReadReq_mshr_miss_latency::.cpu.inst    273525000                       # number of ReadReq MSHR miss cycles
system.icache.ReadReq_mshr_miss_latency::total    273525000                       # number of ReadReq MSHR miss cycles
system.icache.ReadReq_mshr_miss_rate::.cpu.inst     0.007947                       # mshr miss rate for ReadReq accesses
system.icache.ReadReq_mshr_miss_rate::total     0.007947                       # mshr miss rate for ReadReq accesses
system.icache.ReadReq_avg_mshr_miss_latency::.cpu.inst 26527.494908                       # average ReadReq mshr miss latency
system.icache.ReadReq_avg_mshr_miss_latency::total 26527.494908                       # average ReadReq mshr miss latency
system.icache.power_state.pwrStateResidencyTicks::UNDEFINED   3947742000                       # Cumulative time (in ticks) in various power states
system.icache.tags.tagsinuse               244.756428                       # Cycle average of tags in use
system.icache.tags.total_refs                  815513                       # Total number of references to valid blocks.
system.icache.tags.sampled_refs                 10055                       # Sample count of references to valid blocks.
system.icache.tags.avg_refs                 81.105221                       # Average number of references to valid blocks.
system.icache.tags.warmup_cycle                 82000                       # Cycle when the warmup percentage was hit.
system.icache.tags.occ_blocks::.cpu.inst   244.756428                       # Average occupied blocks per requestor
system.icache.tags.occ_percent::.cpu.inst     0.956080                       # Average percentage of cache occupancy
system.icache.tags.occ_percent::total        0.956080                       # Average percentage of cache occupancy
system.icache.tags.occ_task_id_blocks::1024          256                       # Occupied blocks per task id
system.icache.tags.age_task_id_blocks_1024::2           57                       # Occupied blocks per task id
system.icache.tags.age_task_id_blocks_1024::3          199                       # Occupied blocks per task id
system.icache.tags.occ_task_id_percent::1024            1                       # Percentage of cache occupancy per task id
system.icache.tags.tag_accesses               1307765                       # Number of tag accesses
system.icache.tags.data_accesses              1307765                       # Number of data accesses
system.icache.tags.power_state.pwrStateResidencyTicks::UNDEFINED   3947742000                       # Cumulative time (in ticks) in various power states
system.membus.trans_dist::ReadReq                6657                       # Transaction distribution
system.membus.trans_dist::ReadResp               6657                       # Transaction distribution
system.membus.trans_dist::WritebackDirty         1751                       # Transaction distribution
system.membus.pkt_count_system.cache_small.mem_side::system.mem_ctrl.port        15065                       # Packet count per connected master and slave (bytes)
system.membus.pkt_count_system.cache_small.mem_side::total        15065                       # Packet count per connected master and slave (bytes)
system.membus.pkt_count::total                  15065                       # Packet count per connected master and slave (bytes)
system.membus.pkt_size_system.cache_small.mem_side::system.mem_ctrl.port       538112                       # Cumulative packet size per connected master and slave (bytes)
system.membus.pkt_size_system.cache_small.mem_side::total       538112                       # Cumulative packet size per connected master and slave (bytes)
system.membus.pkt_size::total                  538112                       # Cumulative packet size per connected master and slave (bytes)
system.membus.reqLayer2.occupancy            15412000                       # Layer occupancy (ticks)
system.membus.reqLayer2.utilization               0.4                       # Layer utilization (%)
system.membus.respLayer1.occupancy           35530750                       # Layer occupancy (ticks)
system.membus.respLayer1.utilization              0.9                       # Layer utilization (%)
system.membus.power_state.pwrStateResidencyTicks::UNDEFINED   3947742000                       # Cumulative time (in ticks) in various power states
system.mem_ctrl.bytes_read::.cpu.inst          121600                       # Number of bytes read from this memory
system.mem_ctrl.bytes_read::.cpu.data          304448                       # Number of bytes read from this memory
system.mem_ctrl.bytes_read::total              426048                       # Number of bytes read from this memory
system.mem_ctrl.bytes_inst_read::.cpu.inst       121600                       # Number of instructions bytes read from this memory
system.mem_ctrl.bytes_inst_read::total         121600                       # Number of instructions bytes read from this memory
system.mem_ctrl.bytes_written::.writebacks       112064                       # Number of bytes written to this memory
system.mem_ctrl.bytes_written::total           112064                       # Number of bytes written to this memory
system.mem_ctrl.num_reads::.cpu.inst             1900                       # Number of read requests responded to by this memory
system.mem_ctrl.num_reads::.cpu.data             4757                       # Number of read requests responded to by this memory
system.mem_ctrl.num_reads::total                 6657                       # Number of read requests responded to by this memory
system.mem_ctrl.num_writes::.writebacks          1751                       # Number of write requests responded to by this memory
system.mem_ctrl.num_writes::total                1751                       # Number of write requests responded to by this memory
system.mem_ctrl.bw_read::.cpu.inst           30802418                       # Total read bandwidth from this memory (bytes/s)
system.mem_ctrl.bw_read::.cpu.data           77119528                       # Total read bandwidth from this memory (bytes/s)
system.mem_ctrl.bw_read::total              107921946                       # Total read bandwidth from this memory (bytes/s)
system.mem_ctrl.bw_inst_read::.cpu.inst      30802418                       # Instruction read bandwidth from this memory (bytes/s)
system.mem_ctrl.bw_inst_read::total          30802418                       # Instruction read bandwidth from this memory (bytes/s)
system.mem_ctrl.bw_write::.writebacks        28386860                       # Write bandwidth from this memory (bytes/s)
system.mem_ctrl.bw_write::total              28386860                       # Write bandwidth from this memory (bytes/s)
system.mem_ctrl.bw_total::.writebacks        28386860                       # Total bandwidth to/from this memory (bytes/s)
system.mem_ctrl.bw_total::.cpu.inst          30802418                       # Total bandwidth to/from this memory (bytes/s)
system.mem_ctrl.bw_total::.cpu.data          77119528                       # Total bandwidth to/from this memory (bytes/s)
system.mem_ctrl.bw_total::total             136308806                       # Total bandwidth to/from this memory (bytes/s)
system.mem_ctrl.avgPriority_.writebacks::samples      1744.00                       # Average QoS priority value for accepted requests
system.mem_ctrl.avgPriority_.cpu.inst::samples      1900.00                       # Average QoS priority value for accepted requests
system.mem_ctrl.avgPriority_.cpu.data::samples      4736.00                       # Average QoS priority value for accepted requests
system.mem_ctrl.priorityMinLatency       0.000000018750                       # per QoS priority minimum request to response latency (s)
system.mem_ctrl.priorityMaxLatency       0.001446866500                       # per QoS priority maximum request to response latency (s)
system.mem_ctrl.numReadWriteTurnArounds           103                       # Number of turnarounds from READ to WRITE
system.mem_ctrl.numWriteReadTurnArounds           103                       # Number of turnarounds from WRITE to READ
system.mem_ctrl.numStayReadState                15960                       # Number of times bus staying in READ state
system.mem_ctrl.numStayWriteState                1623                       # Number of times bus staying in WRITE state
system.mem_ctrl.readReqs                         6657                       # Number of read requests accepted
system.mem_ctrl.writeReqs                        1751                       # Number of write requests accepted
system.mem_ctrl.readBursts                       6657                       # Number of DRAM read bursts, including those serviced by the write queue
system.mem_ctrl.writeBursts                      1751                       # Number of DRAM write bursts, including those merged in the write queue
system.mem_ctrl.servicedByWrQ                      21                       # Number of DRAM read bursts serviced by the write queue
system.mem_ctrl.mergedWrBursts                      7                       # Number of DRAM write bursts merged with an existing one
system.mem_ctrl.neitherReadNorWriteReqs             0                       # Number of requests that are neither read nor write
system.mem_ctrl.perBankRdBursts::0                536                       # Per bank write bursts
system.mem_ctrl.perBankRdBursts::1                264                       # Per bank write bursts
system.mem_ctrl.perBankRdBursts::2                240                       # Per bank write bursts
system.mem_ctrl.perBankRdBursts::3                347                       # Per bank write bursts
system.mem_ctrl.perBankRdBursts::4                592                       # Per bank write bursts
system.mem_ctrl.perBankRdBursts::5                357                       # Per bank write bursts
system.mem_ctrl.perBankRdBursts::6                277                       # Per bank write bursts
system.mem_ctrl.perBankRdBursts::7                363                       # Per bank write bursts
system.mem_ctrl.perBankRdBursts::8                503                       # Per bank write bursts
system.mem_ctrl.perBankRdBursts::9                340                       # Per bank write bursts
system.mem_ctrl.perBankRdBursts::10               441                       # Per bank write bursts
system.mem_ctrl.perBankRdBursts::11               358                       # Per bank write bursts
system.mem_ctrl.perBankRdBursts::12               347                       # Per bank write bursts
system.mem_ctrl.perBankRdBursts::13               413                       # Per bank write bursts
system.mem_ctrl.perBankRdBursts::14               691                       # Per bank write bursts
system.mem_ctrl.perBankRdBursts::15               567                       # Per bank write bursts
system.mem_ctrl.perBankWrBursts::0                117                       # Per bank write bursts
system.mem_ctrl.perBankWrBursts::1                 18                       # Per bank write bursts
system.mem_ctrl.perBankWrBursts::2                 18                       # Per bank write bursts
system.mem_ctrl.perBankWrBursts::3                 87                       # Per bank write bursts
system.mem_ctrl.perBankWrBursts::4                257                       # Per bank write bursts
system.mem_ctrl.perBankWrBursts::5                 92                       # Per bank write bursts
system.mem_ctrl.perBankWrBursts::6                 70                       # Per bank write bursts
system.mem_ctrl.perBankWrBursts::7                133                       # Per bank write bursts
system.mem_ctrl.perBankWrBursts::8                185                       # Per bank write bursts
system.mem_ctrl.perBankWrBursts::9                 77                       # Per bank write bursts
system.mem_ctrl.perBankWrBursts::10                92                       # Per bank write bursts
system.mem_ctrl.perBankWrBursts::11                13                       # Per bank write bursts
system.mem_ctrl.perBankWrBursts::12                69                       # Per bank write bursts
system.mem_ctrl.perBankWrBursts::13               112                       # Per bank write bursts
system.mem_ctrl.perBankWrBursts::14               185                       # Per bank write bursts
system.mem_ctrl.perBankWrBursts::15               201                       # Per bank write bursts
system.mem_ctrl.avgRdQLen                        1.00                       # Average read queue length when enqueuing
system.mem_ctrl.avgWrQLen                       22.20                       # Average write queue length when enqueuing
system.mem_ctrl.totQLat                      62441750                       # Total ticks spent queuing
system.mem_ctrl.totBusLat                    33180000                       # Total ticks spent in databus transfers
system.mem_ctrl.totMemAccLat                186866750                       # Total ticks spent from burst creation until serviced by the DRAM
system.mem_ctrl.avgQLat                       9409.55                       # Average queueing delay per DRAM burst
system.mem_ctrl.avgBusLat                     5000.00                       # Average bus latency per DRAM burst
system.mem_ctrl.avgMemAccLat                 28159.55                       # Average memory access latency per DRAM burst
system.mem_ctrl.numRdRetry                          0                       # Number of times read queue was full causing retry
system.mem_ctrl.numWrRetry                          0                       # Number of times write queue was full causing retry
system.mem_ctrl.readRowHits                      4703                       # Number of row buffer hits during reads
system.mem_ctrl.writeRowHits                     1298                       # Number of row buffer hits during writes
system.mem_ctrl.readRowHitRate                  70.87                       # Row buffer hit rate for reads
system.mem_ctrl.writeRowHitRate                 74.43                       # Row buffer hit rate for writes
system.mem_ctrl.readPktSize::0                      0                       # Read request sizes (log2)
system.mem_ctrl.readPktSize::1                      0                       # Read request sizes (log2)
system.mem_ctrl.readPktSize::2                      0                       # Read request sizes (log2)
system.mem_ctrl.readPktSize::3                      0                       # Read request sizes (log2)
system.mem_ctrl.readPktSize::4                      0                       # Read request sizes (log2)
system.mem_ctrl.readPktSize::5                      0                       # Read request sizes (log2)
system.mem_ctrl.readPktSize::6                   6657                       # Read request sizes (log2)
system.mem_ctrl.writePktSize::0                     0                       # Write request sizes (log2)
system.mem_ctrl.writePktSize::1                     0                       # Write request sizes (log2)
system.mem_ctrl.writePktSize::2                     0                       # Write request sizes (log2)
system.mem_ctrl.writePktSize::3                     0                       # Write request sizes (log2)
system.mem_ctrl.writePktSize::4                     0                       # Write request sizes (log2)
system.mem_ctrl.writePktSize::5                     0                       # Write request sizes (log2)
system.mem_ctrl.writePktSize::6                  1751                       # Write request sizes (log2)
system.mem_ctrl.rdQLenPdf::0                     6626                       # What read queue length does an incoming req see
system.mem_ctrl.rdQLenPdf::1                       10                       # What read queue length does an incoming req see
system.mem_ctrl.rdQLenPdf::2                        0                       # What read queue length does an incoming req see
system.mem_ctrl.rdQLenPdf::3                        0                       # What read queue length does an incoming req see
system.mem_ctrl.rdQLenPdf::4                        0                       # What read queue length does an incoming req see
system.mem_ctrl.rdQLenPdf::5                        0                       # What read queue length does an incoming req see
system.mem_ctrl.rdQLenPdf::6                        0                       # What read queue length does an incoming req see
system.mem_ctrl.rdQLenPdf::7                        0                       # What read queue length does an incoming req see
system.mem_ctrl.rdQLenPdf::8                        0                       # What read queue length does an incoming req see
system.mem_ctrl.rdQLenPdf::9                        0                       # What read queue length does an incoming req see
system.mem_ctrl.rdQLenPdf::10                       0                       # What read queue length does an incoming req see
system.mem_ctrl.rdQLenPdf::11                       0                       # What read queue length does an incoming req see
system.mem_ctrl.rdQLenPdf::12                       0                       # What read queue length does an incoming req see
system.mem_ctrl.rdQLenPdf::13                       0                       # What read queue length does an incoming req see
system.mem_ctrl.rdQLenPdf::14                       0                       # What read queue length does an incoming req see
system.mem_ctrl.rdQLenPdf::15                       0                       # What read queue length does an incoming req see
system.mem_ctrl.rdQLenPdf::16                       0                       # What read queue length does an incoming req see
system.mem_ctrl.rdQLenPdf::17                       0                       # What read queue length does an incoming req see
system.mem_ctrl.rdQLenPdf::18                       0                       # What read queue length does an incoming req see
system.mem_ctrl.rdQLenPdf::19                       0                       # What read queue length does an incoming req see
system.mem_ctrl.rdQLenPdf::20                       0                       # What read queue length does an incoming req see
system.mem_ctrl.rdQLenPdf::21                       0                       # What read queue length does an incoming req see
system.mem_ctrl.rdQLenPdf::22                       0                       # What read queue length does an incoming req see
system.mem_ctrl.rdQLenPdf::23                       0                       # What read queue length does an incoming req see
system.mem_ctrl.rdQLenPdf::24                       0                       # What read queue length does an incoming req see
system.mem_ctrl.rdQLenPdf::25                       0                       # What read queue length does an incoming req see
system.mem_ctrl.rdQLenPdf::26                       0                       # What read queue length does an incoming req see
system.mem_ctrl.rdQLenPdf::27                       0                       # What read queue length does an incoming req see
system.mem_ctrl.rdQLenPdf::28                       0                       # What read queue length does an incoming req see
system.mem_ctrl.rdQLenPdf::29                       0                       # What read queue length does an incoming req see
system.mem_ctrl.rdQLenPdf::30                       0                       # What read queue length does an incoming req see
system.mem_ctrl.rdQLenPdf::31                       0                       # What read queue length does an incoming req see
system.mem_ctrl.wrQLenPdf::0                        1                       # What write queue length does an incoming req see
system.mem_ctrl.wrQLenPdf::1                        1                       # What write queue length does an incoming req see
system.mem_ctrl.wrQLenPdf::2                        1                       # What write queue length does an incoming req see
system.mem_ctrl.wrQLenPdf::3                        1                       # What write queue length does an incoming req see
system.mem_ctrl.wrQLenPdf::4                        1                       # What write queue length does an incoming req see
system.mem_ctrl.wrQLenPdf::5                        1                       # What write queue length does an incoming req see
system.mem_ctrl.wrQLenPdf::6                        1                       # What write queue length does an incoming req see
system.mem_ctrl.wrQLenPdf::7                        1                       # What write queue length does an incoming req see
system.mem_ctrl.wrQLenPdf::8                        1                       # What write queue length does an incoming req see
system.mem_ctrl.wrQLenPdf::9                        1                       # What write queue length does an incoming req see
system.mem_ctrl.wrQLenPdf::10                       1                       # What write queue length does an incoming req see
system.mem_ctrl.wrQLenPdf::11                       1                       # What write queue length does an incoming req see
system.mem_ctrl.wrQLenPdf::12                       1                       # What write queue length does an incoming req see
system.mem_ctrl.wrQLenPdf::13                       1                       # What write queue length does an incoming req see
system.mem_ctrl.wrQLenPdf::14                       1                       # What write queue length does an incoming req see
system.mem_ctrl.wrQLenPdf::15                      38                       # What write queue length does an incoming req see
system.mem_ctrl.wrQLenPdf::16                      42                       # What write queue length does an incoming req see
system.mem_ctrl.wrQLenPdf::17                     104                       # What write queue length does an incoming req see
system.mem_ctrl.wrQLenPdf::18                     103                       # What write queue length does an incoming req see
system.mem_ctrl.wrQLenPdf::19                     103                       # What write queue length does an incoming req see
system.mem_ctrl.wrQLenPdf::20                     103                       # What write queue length does an incoming req see
system.mem_ctrl.wrQLenPdf::21                     103                       # What write queue length does an incoming req see
system.mem_ctrl.wrQLenPdf::22                     103                       # What write queue length does an incoming req see
system.mem_ctrl.wrQLenPdf::23                     103                       # What write queue length does an incoming req see
system.mem_ctrl.wrQLenPdf::24                     103                       # What write queue length does an incoming req see
system.mem_ctrl.wrQLenPdf::25                     103                       # What write queue length does an incoming req see
system.mem_ctrl.wrQLenPdf::26                     103                       # What write queue length does an incoming req see
system.mem_ctrl.wrQLenPdf::27                     103                       # What write queue length does an incoming req see
system.mem_ctrl.wrQLenPdf::28                     103                       # What write queue length does an incoming req see
system.mem_ctrl.wrQLenPdf::29                     103                       # What write queue length does an incoming req see
system.mem_ctrl.wrQLenPdf::30                     103                       # What write queue length does an incoming req see
system.mem_ctrl.wrQLenPdf::31                     103                       # What write queue length does an incoming req see
system.mem_ctrl.wrQLenPdf::32                     103                       # What write queue length does an incoming req see
system.mem_ctrl.wrQLenPdf::33                       0                       # What write queue length does an incoming req see
system.mem_ctrl.wrQLenPdf::34                       0                       # What write queue length does an incoming req see
system.mem_ctrl.wrQLenPdf::35                       0                       # What write queue length does an incoming req see
system.mem_ctrl.wrQLenPdf::36                       0                       # What write queue length does an incoming req see
system.mem_ctrl.wrQLenPdf::37                       0                       # What write queue length does an incoming req see
system.mem_ctrl.wrQLenPdf::38                       0                       # What write queue length does an incoming req see
system.mem_ctrl.wrQLenPdf::39                       0                       # What write queue length does an incoming req see
system.mem_ctrl.wrQLenPdf::40                       0                       # What write queue length does an incoming req see
system.mem_ctrl.wrQLenPdf::41                       0                       # What write queue length does an incoming req see
system.mem_ctrl.wrQLenPdf::42                       0                       # What write queue length does an incoming req see
system.mem_ctrl.wrQLenPdf::43                       0                       # What write queue length does an incoming req see
system.mem_ctrl.wrQLenPdf::44                       0                       # What write queue length does an incoming req see
system.mem_ctrl.wrQLenPdf::45                       0                       # What write queue length does an incoming req see
system.mem_ctrl.wrQLenPdf::46                       0                       # What write queue length does an incoming req see
system.mem_ctrl.wrQLenPdf::47                       0                       # What write queue length does an incoming req see
system.mem_ctrl.wrQLenPdf::48                       0                       # What write queue length does an incoming req see
system.mem_ctrl.wrQLenPdf::49                       0                       # What write queue length does an incoming req see
system.mem_ctrl.wrQLenPdf::50                       0                       # What write queue length does an incoming req see
system.mem_ctrl.wrQLenPdf::51                       0                       # What write queue length does an incoming req see
system.mem_ctrl.wrQLenPdf::52                       0                       # What write queue length does an incoming req see
system.mem_ctrl.wrQLenPdf::53                       0                       # What write queue length does an incoming req see
system.mem_ctrl.wrQLenPdf::54                       0                       # What write queue length does an incoming req see
system.mem_ctrl.wrQLenPdf::55                       0                       # What write queue length does an incoming req see
system.mem_ctrl.wrQLenPdf::56                       0                       # What write queue length does an incoming req see
system.mem_ctrl.wrQLenPdf::57                       0                       # What write queue length does an incoming req see
system.mem_ctrl.wrQLenPdf::58                       0                       # What write queue length does an incoming req see
system.mem_ctrl.wrQLenPdf::59                       0                       # What write queue length does an incoming req see
system.mem_ctrl.wrQLenPdf::60                       0                       # What write queue length does an incoming req see
system.mem_ctrl.wrQLenPdf::61                       0                       # What write queue length does an incoming req see
system.mem_ctrl.wrQLenPdf::62                       0                       # What write queue length does an incoming req see
system.mem_ctrl.wrQLenPdf::63                       0                       # What write queue length does an incoming req see
system.mem_ctrl.bytesPerActivate::samples         2361                       # Bytes accessed per row activation
system.mem_ctrl.bytesPerActivate::mean     226.670055                       # Bytes accessed per row activation
system.mem_ctrl.bytesPerActivate::gmean    141.318658                       # Bytes accessed per row activation
system.mem_ctrl.bytesPerActivate::stdev    263.161328                       # Bytes accessed per row activation
system.mem_ctrl.bytesPerActivate::0-127          1072     45.40%     45.40% # Bytes accessed per row activation
system.mem_ctrl.bytesPerActivate::128-255          629     26.64%     72.05% # Bytes accessed per row activation
system.mem_ctrl.bytesPerActivate::256-383          227      9.61%     81.66% # Bytes accessed per row activation
system.mem_ctrl.bytesPerActivate::384-511          115      4.87%     86.53% # Bytes accessed per row activation
system.mem_ctrl.bytesPerActivate::512-639           73      3.09%     89.62% # Bytes accessed per row activation
system.mem_ctrl.bytesPerActivate::640-767           46      1.95%     91.57% # Bytes accessed per row activation
system.mem_ctrl.bytesPerActivate::768-895           44      1.86%     93.43% # Bytes accessed per row activation
system.mem_ctrl.bytesPerActivate::896-1023           22      0.93%     94.37% # Bytes accessed per row activation
system.mem_ctrl.bytesPerActivate::1024-1151          133      5.63%    100.00% # Bytes accessed per row activation
system.mem_ctrl.bytesPerActivate::total          2361                       # Bytes accessed per row activation
system.mem_ctrl.rdPerTurnAround::samples          103                       # Reads before turning the bus around for writes
system.mem_ctrl.rdPerTurnAround::mean       64.398058                       # Reads before turning the bus around for writes
system.mem_ctrl.rdPerTurnAround::gmean      41.900918                       # Reads before turning the bus around for writes
system.mem_ctrl.rdPerTurnAround::stdev     150.462838                       # Reads before turning the bus around for writes
system.mem_ctrl.rdPerTurnAround::0-63              82     79.61%     79.61% # Reads before turning the bus around for writes
system.mem_ctrl.rdPerTurnAround::64-127            14     13.59%     93.20% # Reads before turning the bus around for writes
system.mem_ctrl.rdPerTurnAround::128-191            4      3.88%     97.09% # Reads before turning the bus around for writes
system.mem_ctrl.rdPerTurnAround::192-255            1      0.97%     98.06% # Reads before turning the bus around for writes
system.mem_ctrl.rdPerTurnAround::256-319            1      0.97%     99.03% # Reads before turning the bus around for writes
system.mem_ctrl.rdPerTurnAround::1472-1535            1      0.97%    100.00% # Reads before turning the bus around for writes
system.mem_ctrl.rdPerTurnAround::total            103                       # Reads before turning the bus around for writes
system.mem_ctrl.wrPerTurnAround::samples          103                       # Writes before turning the bus around for reads
system.mem_ctrl.wrPerTurnAround::mean       16.757282                       # Writes before turning the bus around for reads
system.mem_ctrl.wrPerTurnAround::gmean      16.730836                       # Writes before turning the bus around for reads
system.mem_ctrl.wrPerTurnAround::stdev       0.954515                       # Writes before turning the bus around for reads
system.mem_ctrl.wrPerTurnAround::16                62     60.19%     60.19% # Writes before turning the bus around for reads
system.mem_ctrl.wrPerTurnAround::17                 4      3.88%     64.08% # Writes before turning the bus around for reads
system.mem_ctrl.wrPerTurnAround::18                37     35.92%    100.00% # Writes before turning the bus around for reads
system.mem_ctrl.wrPerTurnAround::total            103                       # Writes before turning the bus around for reads
system.mem_ctrl.bytesReadDRAM                  424704                       # Total number of bytes read from DRAM
system.mem_ctrl.bytesReadWrQ                     1344                       # Total number of bytes read from write queue
system.mem_ctrl.bytesWritten                   110464                       # Total number of bytes written to DRAM
system.mem_ctrl.bytesReadSys                   426048                       # Total read bytes from the system interface side
system.mem_ctrl.bytesWrittenSys                112064                       # Total written bytes from the system interface side
system.mem_ctrl.avgRdBW                        107.58                       # Average DRAM read bandwidth in MiByte/s
system.mem_ctrl.avgWrBW                         27.98                       # Average achieved write bandwidth in MiByte/s
system.mem_ctrl.avgRdBWSys                     107.92                       # Average system read bandwidth in MiByte/s
system.mem_ctrl.avgWrBWSys                      28.39                       # Average system write bandwidth in MiByte/s
system.mem_ctrl.peakBW                       12800.00                       # Theoretical peak bandwidth in MiByte/s
system.mem_ctrl.busUtil                          1.06                       # Data bus utilization in percentage
system.mem_ctrl.busUtilRead                      0.84                       # Data bus utilization in percentage for reads
system.mem_ctrl.busUtilWrite                     0.22                       # Data bus utilization in percentage for writes
system.mem_ctrl.totGap                     3594010000                       # Total gap between requests
system.mem_ctrl.avgGap                      427451.24                       # Average gap between requests
system.mem_ctrl.masterReadBytes::.cpu.inst       121600                       # Per-master bytes read from memory
system.mem_ctrl.masterReadBytes::.cpu.data       303104                       # Per-master bytes read from memory
system.mem_ctrl.masterWriteBytes::.writebacks       110464                       # Per-master bytes write to memory
system.mem_ctrl.masterReadRate::.cpu.inst 30802418.192475598305                       # Per-master bytes read from memory rate (Bytes/sec)
system.mem_ctrl.masterReadRate::.cpu.data 76779080.294507592916                       # Per-master bytes read from memory rate (Bytes/sec)
system.mem_ctrl.masterWriteRate::.writebacks 27981565.158006779850                       # Per-master bytes write to memory rate (Bytes/sec)
system.mem_ctrl.masterReadAccesses::.cpu.inst         1900                       # Per-master read serviced memory accesses
system.mem_ctrl.masterReadAccesses::.cpu.data         4757                       # Per-master read serviced memory accesses
system.mem_ctrl.masterWriteAccesses::.writebacks         1751                       # Per-master write serviced memory accesses
system.mem_ctrl.masterReadTotalLat::.cpu.inst     54646250                       # Per-master read total memory access latency
system.mem_ctrl.masterReadTotalLat::.cpu.data    132220500                       # Per-master read total memory access latency
system.mem_ctrl.masterWriteTotalLat::.writebacks  79782211000                       # Per-master write total memory access latency
system.mem_ctrl.masterReadAvgLat::.cpu.inst     28761.18                       # Per-master read average memory access latency
system.mem_ctrl.masterReadAvgLat::.cpu.data     27794.93                       # Per-master read average memory access latency
system.mem_ctrl.masterWriteAvgLat::.writebacks  45563798.40                       # Per-master write average memory access latency
system.mem_ctrl.pageHitRate                     71.61                       # Row buffer hit rate, read and write combined
system.mem_ctrl.rank1.actEnergy               9467640                       # Energy for activate commands per rank (pJ)
system.mem_ctrl.rank1.preEnergy               5032170                       # Energy for precharge commands per rank (pJ)
system.mem_ctrl.rank1.readEnergy             26132400                       # Energy for read commands per rank (pJ)
system.mem_ctrl.rank1.writeEnergy             4875480                       # Energy for write commands per rank (pJ)
system.mem_ctrl.rank1.refreshEnergy      311622480.000000                       # Energy for refresh commands per rank (pJ)
system.mem_ctrl.rank1.actBackEnergy         882435810                       # Energy for active background per rank (pJ)
system.mem_ctrl.rank1.preBackEnergy         772880160                       # Energy for precharge background per rank (pJ)
system.mem_ctrl.rank1.actPowerDownEnergy            0                       # Energy for active power-down per rank (pJ)
system.mem_ctrl.rank1.prePowerDownEnergy            0                       # Energy for precharge power-down per rank (pJ)
system.mem_ctrl.rank1.selfRefreshEnergy             0                       # Energy for self refresh per rank (pJ)
system.mem_ctrl.rank1.totalEnergy          2012446140                       # Total energy per rank (pJ)
system.mem_ctrl.rank1.averagePower         509.771444                       # Core power per rank (mW)
system.mem_ctrl.rank1.totalIdleTime                 0                       # Total Idle time Per DRAM Rank
system.mem_ctrl.rank1.memoryStateTime::IDLE   2000386500                       # Time in different power states
system.mem_ctrl.rank1.memoryStateTime::REF    131673250                       # Time in different power states
system.mem_ctrl.rank1.memoryStateTime::SREF            0                       # Time in different power states
system.mem_ctrl.rank1.memoryStateTime::PRE_PDN            0                       # Time in different power states
system.mem_ctrl.rank1.memoryStateTime::ACT   1815682250                       # Time in different power states
system.mem_ctrl.rank1.memoryStateTime::ACT_PDN            0                       # Time in different power states
system.mem_ctrl.rank0.actEnergy               7389900                       # Energy for activate commands per rank (pJ)
system.mem_ctrl.rank0.preEnergy               3927825                       # Energy for precharge commands per rank (pJ)
system.mem_ctrl.rank0.readEnergy             21248640                       # Energy for read commands per rank (pJ)
system.mem_ctrl.rank0.writeEnergy             4134240                       # Energy for write commands per rank (pJ)
system.mem_ctrl.rank0.refreshEnergy      311622480.000000                       # Energy for refresh commands per rank (pJ)
system.mem_ctrl.rank0.actBackEnergy         737813130                       # Energy for active background per rank (pJ)
system.mem_ctrl.rank0.preBackEnergy         894667680                       # Energy for precharge background per rank (pJ)
system.mem_ctrl.rank0.actPowerDownEnergy            0                       # Energy for active power-down per rank (pJ)
system.mem_ctrl.rank0.prePowerDownEnergy            0                       # Energy for precharge power-down per rank (pJ)
system.mem_ctrl.rank0.selfRefreshEnergy             0                       # Energy for self refresh per rank (pJ)
system.mem_ctrl.rank0.totalEnergy          1980803895                       # Total energy per rank (pJ)
system.mem_ctrl.rank0.averagePower         501.756167                       # Core power per rank (mW)
system.mem_ctrl.rank0.totalIdleTime                 0                       # Total Idle time Per DRAM Rank
system.mem_ctrl.rank0.memoryStateTime::IDLE   2318137250                       # Time in different power states
system.mem_ctrl.rank0.memoryStateTime::REF    131673250                       # Time in different power states
system.mem_ctrl.rank0.memoryStateTime::SREF            0                       # Time in different power states
system.mem_ctrl.rank0.memoryStateTime::PRE_PDN            0                       # Time in different power states
system.mem_ctrl.rank0.memoryStateTime::ACT   1497931500                       # Time in different power states
system.mem_ctrl.rank0.memoryStateTime::ACT_PDN            0                       # Time in different power states
system.mem_ctrl.power_state.pwrStateResidencyTicks::UNDEFINED   3947742000                       # Cumulative time (in ticks) in various power states
system.cache_medium.blocked_cycles::no_mshrs            0                       # number of cycles access was blocked
system.cache_medium.blocked_cycles::no_targets            0                       # number of cycles access was blocked
system.cache_medium.blocked::no_mshrs               0                       # number of cycles access was blocked
system.cache_medium.blocked::no_targets             0                       # number of cycles access was blocked
system.cache_medium.avg_blocked_cycles::no_mshrs          nan                       # average number of cycles each access was blocked
system.cache_medium.avg_blocked_cycles::no_targets          nan                       # average number of cycles each access was blocked
system.cache_medium.replacements                    0                       # number of replacements
system.cache_medium.power_state.pwrStateResidencyTicks::UNDEFINED   3947742000                       # Cumulative time (in ticks) in various power states
system.cache_medium.tags.tagsinuse                  0                       # Cycle average of tags in use
system.cache_medium.tags.total_refs                 0                       # Total number of references to valid blocks.
system.cache_medium.tags.sampled_refs               0                       # Sample count of references to valid blocks.
system.cache_medium.tags.avg_refs                 nan                       # Average number of references to valid blocks.
system.cache_medium.tags.warmup_cycle               0                       # Cycle when the warmup percentage was hit.
system.cache_medium.tags.tag_accesses               0                       # Number of tag accesses
system.cache_medium.tags.data_accesses              0                       # Number of data accesses
system.cache_medium.tags.power_state.pwrStateResidencyTicks::UNDEFINED   3947742000                       # Cumulative time (in ticks) in various power states
system.clk_domain.clock                          1000                       # Clock period in ticks
system.clk_domain.voltage_domain.voltage            1                       # Voltage in Volts
system.dcache.demand_hits::.cpu.data           304309                       # number of demand (read+write) hits
system.dcache.demand_hits::total               304309                       # number of demand (read+write) hits
system.dcache.overall_hits::.cpu.data          304942                       # number of overall hits
system.dcache.overall_hits::total              304942                       # number of overall hits
system.dcache.demand_misses::.cpu.data           8959                       # number of demand (read+write) misses
system.dcache.demand_misses::total               8959                       # number of demand (read+write) misses
system.dcache.overall_misses::.cpu.data          9300                       # number of overall misses
system.dcache.overall_misses::total              9300                       # number of overall misses
system.dcache.demand_miss_latency::.cpu.data    435150000                       # number of demand (read+write) miss cycles
system.dcache.demand_miss_latency::total    435150000                       # number of demand (read+write) miss cycles
system.dcache.overall_miss_latency::.cpu.data    447466000                       # number of overall miss cycles
system.dcache.overall_miss_latency::total    447466000                       # number of overall miss cycles
system.dcache.demand_accesses::.cpu.data       313268                       # number of demand (read+write) accesses
system.dcache.demand_accesses::total           313268                       # number of demand (read+write) accesses
system.dcache.overall_accesses::.cpu.data       314242                       # number of overall (read+write) accesses
system.dcache.overall_accesses::total          314242                       # number of overall (read+write) accesses
system.dcache.demand_miss_rate::.cpu.data     0.028599                       # miss rate for demand accesses
system.dcache.demand_miss_rate::total        0.028599                       # miss rate for demand accesses
system.dcache.overall_miss_rate::.cpu.data     0.029595                       # miss rate for overall accesses
system.dcache.overall_miss_rate::total       0.029595                       # miss rate for overall accesses
system.dcache.demand_avg_miss_latency::.cpu.data 48571.269115                       # average overall miss latency
system.dcache.demand_avg_miss_latency::total 48571.269115                       # average overall miss latency
system.dcache.overall_avg_miss_latency::.cpu.data 48114.623656                       # average overall miss latency
system.dcache.overall_avg_miss_latency::total 48114.623656                       # average overall miss latency
system.dcache.blocked_cycles::no_mshrs              0                       # number of cycles access was blocked
system.dcache.blocked_cycles::no_targets            0                       # number of cycles access was blocked
system.dcache.blocked::no_mshrs                     0                       # number of cycles access was blocked
system.dcache.blocked::no_targets                   0                       # number of cycles access was blocked
system.dcache.avg_blocked_cycles::no_mshrs          nan                       # average number of cycles each access was blocked
system.dcache.avg_blocked_cycles::no_targets          nan                       # average number of cycles each access was blocked
system.dcache.writebacks::.writebacks            5741                       # number of writebacks
system.dcache.writebacks::total                  5741                       # number of writebacks
system.dcache.demand_mshr_misses::.cpu.data         8959                       # number of demand (read+write) MSHR misses
system.dcache.demand_mshr_misses::total          8959                       # number of demand (read+write) MSHR misses
system.dcache.overall_mshr_misses::.cpu.data         9300                       # number of overall MSHR misses
system.dcache.overall_mshr_misses::total         9300                       # number of overall MSHR misses
system.dcache.demand_mshr_miss_latency::.cpu.data    417234000                       # number of demand (read+write) MSHR miss cycles
system.dcache.demand_mshr_miss_latency::total    417234000                       # number of demand (read+write) MSHR miss cycles
[...]
system.dcache.tags.age_task_id_blocks_1024::0            3                       # Occupied blocks per task id
system.dcache.tags.age_task_id_blocks_1024::1           19                       # Occupied blocks per task id
system.dcache.tags.age_task_id_blocks_1024::2          234                       # Occupied blocks per task id
system.dcache.tags.occ_task_id_percent::1024            1                       # Percentage of cache occupancy per task id
system.dcache.tags.tag_accesses               2764708                       # Number of tag accesses
system.dcache.tags.data_accesses              2764708                       # Number of data accesses
system.dcache.tags.power_state.pwrStateResidencyTicks::UNDEFINED  31529007000                       # Cumulative time (in ticks) in various power states
system.cache_large.blocked_cycles::no_mshrs            0                       # number of cycles access was blocked
system.cache_large.blocked_cycles::no_targets            0                       # number of cycles access was blocked
system.cache_large.blocked::no_mshrs                0                       # number of cycles access was blocked
system.cache_large.blocked::no_targets              0                       # number of cycles access was blocked
system.cache_large.avg_blocked_cycles::no_mshrs          nan                       # average number of cycles each access was blocked
system.cache_large.avg_blocked_cycles::no_targets          nan                       # average number of cycles each access was blocked
system.cache_large.replacements                     0                       # number of replacements
system.cache_large.power_state.pwrStateResidencyTicks::UNDEFINED  31529007000                       # Cumulative time (in ticks) in various power states
system.cache_large.tags.tagsinuse                   0                       # Cycle average of tags in use
system.cache_large.tags.total_refs                  0                       # Total number of references to valid blocks.
system.cache_large.tags.sampled_refs                0                       # Sample count of references to valid blocks.
system.cache_large.tags.avg_refs                  nan                       # Average number of references to valid blocks.
system.cache_large.tags.warmup_cycle                0                       # Cycle when the warmup percentage was hit.
system.cache_large.tags.tag_accesses                0                       # Number of tag accesses
system.cache_large.tags.data_accesses               0                       # Number of data accesses
system.cache_large.tags.power_state.pwrStateResidencyTicks::UNDEFINED  31529007000                       # Cumulative time (in ticks) in various power states
system.l2cache.demand_hits::.cpu.inst           85490                       # number of demand (read+write) hits
system.l2cache.demand_hits::.cpu.data           36632                       # number of demand (read+write) hits
system.l2cache.demand_hits::total              122122                       # number of demand (read+write) hits
system.l2cache.overall_hits::.cpu.inst          85490                       # number of overall hits
system.l2cache.overall_hits::.cpu.data          36632                       # number of overall hits
system.l2cache.overall_hits::total             122122                       # number of overall hits
system.l2cache.demand_misses::.cpu.inst         64956                       # number of demand (read+write) misses
system.l2cache.demand_misses::.cpu.data         60544                       # number of demand (read+write) misses
system.l2cache.demand_misses::total            125500                       # number of demand (read+write) misses
system.l2cache.overall_misses::.cpu.inst        64956                       # number of overall misses
system.l2cache.overall_misses::.cpu.data        60544                       # number of overall misses
system.l2cache.overall_misses::total           125500                       # number of overall misses
system.l2cache.demand_miss_latency::.cpu.inst   2461786000                       # number of demand (read+write) miss cycles
system.l2cache.demand_miss_latency::.cpu.data   3031725000                       # number of demand (read+write) miss cycles
system.l2cache.demand_miss_latency::total   5493511000                       # number of demand (read+write) miss cycles
system.l2cache.overall_miss_latency::.cpu.inst   2461786000                       # number of overall miss cycles
system.l2cache.overall_miss_latency::.cpu.data   3031725000                       # number of overall miss cycles
system.l2cache.overall_miss_latency::total   5493511000                       # number of overall miss cycles
system.l2cache.demand_accesses::.cpu.inst       150446                       # number of demand (read+write) accesses
system.l2cache.demand_accesses::.cpu.data        97176                       # number of demand (read+write) accesses
system.l2cache.demand_accesses::total          247622                       # number of demand (read+write) accesses
system.l2cache.overall_accesses::.cpu.inst       150446                       # number of overall (read+write) accesses
system.l2cache.overall_accesses::.cpu.data        97176                       # number of overall (read+write) accesses
system.l2cache.overall_accesses::total         247622                       # number of overall (read+write) accesses
system.l2cache.demand_miss_rate::.cpu.inst     0.431756                       # miss rate for demand accesses
system.l2cache.demand_miss_rate::.cpu.data     0.623034                       # miss rate for demand accesses
system.l2cache.demand_miss_rate::total       0.506821                       # miss rate for demand accesses
system.l2cache.overall_miss_rate::.cpu.inst     0.431756                       # miss rate for overall accesses
system.l2cache.overall_miss_rate::.cpu.data     0.623034                       # miss rate for overall accesses
system.l2cache.overall_miss_rate::total      0.506821                       # miss rate for overall accesses
system.l2cache.demand_avg_miss_latency::.cpu.inst 37899.285670                       # average overall miss latency
system.l2cache.demand_avg_miss_latency::.cpu.data 50074.739033                       # average overall miss latency
system.l2cache.demand_avg_miss_latency::total 43772.996016                       # average overall miss latency
system.l2cache.overall_avg_miss_latency::.cpu.inst 37899.285670                       # average overall miss latency
system.l2cache.overall_avg_miss_latency::.cpu.data 50074.739033                       # average overall miss latency
system.l2cache.overall_avg_miss_latency::total 43772.996016                       # average overall miss latency
system.l2cache.blocked_cycles::no_mshrs             0                       # number of cycles access was blocked
system.l2cache.blocked_cycles::no_targets            0                       # number of cycles access was blocked
system.l2cache.blocked::no_mshrs                    0                       # number of cycles access was blocked
system.l2cache.blocked::no_targets                  0                       # number of cycles access was blocked
system.l2cache.avg_blocked_cycles::no_mshrs          nan                       # average number of cycles each access was blocked
system.l2cache.avg_blocked_cycles::no_targets          nan                       # average number of cycles each access was blocked
system.l2cache.writebacks::.writebacks          41607                       # number of writebacks
system.l2cache.writebacks::total                41607                       # number of writebacks
system.l2cache.demand_mshr_misses::.cpu.inst        64956                       # number of demand (read+write) MSHR misses
system.l2cache.demand_mshr_misses::.cpu.data        60544                       # number of demand (read+write) MSHR misses
system.l2cache.demand_mshr_misses::total       125500                       # number of demand (read+write) MSHR misses
system.l2cache.overall_mshr_misses::.cpu.inst        64956                       # number of overall MSHR misses
system.l2cache.overall_mshr_misses::.cpu.data        60544                       # number of overall MSHR misses
system.l2cache.overall_mshr_misses::total       125500                       # number of overall MSHR misses
system.l2cache.demand_mshr_miss_latency::.cpu.inst   2331874000                       # number of demand (read+write) MSHR miss cycles
system.l2cache.demand_mshr_miss_latency::.cpu.data   2910637000                       # number of demand (read+write) MSHR miss cycles
system.l2cache.demand_mshr_miss_latency::total   5242511000                       # number of demand (read+write) MSHR miss cycles
system.l2cache.overall_mshr_miss_latency::.cpu.inst   2331874000                       # number of overall MSHR miss cycles
system.l2cache.overall_mshr_miss_latency::.cpu.data   2910637000                       # number of overall MSHR miss cycles
system.l2cache.overall_mshr_miss_latency::total   5242511000                       # number of overall MSHR miss cycles
system.l2cache.demand_mshr_miss_rate::.cpu.inst     0.431756                       # mshr miss rate for demand accesses
system.l2cache.demand_mshr_miss_rate::.cpu.data     0.623034                       # mshr miss rate for demand accesses
system.l2cache.demand_mshr_miss_rate::total     0.506821                       # mshr miss rate for demand accesses
system.l2cache.overall_mshr_miss_rate::.cpu.inst     0.431756                       # mshr miss rate for overall accesses
system.l2cache.overall_mshr_miss_rate::.cpu.data     0.623034                       # mshr miss rate for overall accesses
system.l2cache.overall_mshr_miss_rate::total     0.506821                       # mshr miss rate for overall accesses
system.l2cache.demand_avg_mshr_miss_latency::.cpu.inst 35899.285670                       # average overall mshr miss latency
system.l2cache.demand_avg_mshr_miss_latency::.cpu.data 48074.739033                       # average overall mshr miss latency
system.l2cache.demand_avg_mshr_miss_latency::total 41772.996016                       # average overall mshr miss latency
system.l2cache.overall_avg_mshr_miss_latency::.cpu.inst 35899.285670                       # average overall mshr miss latency
system.l2cache.overall_avg_mshr_miss_latency::.cpu.data 48074.739033                       # average overall mshr miss latency
system.l2cache.overall_avg_mshr_miss_latency::total 41772.996016                       # average overall mshr miss latency
system.l2cache.replacements                    149066                       # number of replacements
system.l2cache.ReadReq_hits::.cpu.inst          85490                       # number of ReadReq hits
system.l2cache.ReadReq_hits::.cpu.data          36632                       # number of ReadReq hits
system.l2cache.ReadReq_hits::total             122122                       # number of ReadReq hits
system.l2cache.ReadReq_misses::.cpu.inst        64956                       # number of ReadReq misses
system.l2cache.ReadReq_misses::.cpu.data        60544                       # number of ReadReq misses
system.l2cache.ReadReq_misses::total           125500                       # number of ReadReq misses
system.l2cache.ReadReq_miss_latency::.cpu.inst   2461786000                       # number of ReadReq miss cycles
system.l2cache.ReadReq_miss_latency::.cpu.data   3031725000                       # number of ReadReq miss cycles
system.l2cache.ReadReq_miss_latency::total   5493511000                       # number of ReadReq miss cycles
system.l2cache.ReadReq_accesses::.cpu.inst       150446                       # number of ReadReq accesses(hits+misses)
system.l2cache.ReadReq_accesses::.cpu.data        97176                       # number of ReadReq accesses(hits+misses)
system.l2cache.ReadReq_accesses::total         247622                       # number of ReadReq accesses(hits+misses)
system.l2cache.ReadReq_miss_rate::.cpu.inst     0.431756                       # miss rate for ReadReq accesses
system.l2cache.ReadReq_miss_rate::.cpu.data     0.623034                       # miss rate for ReadReq accesses
system.l2cache.ReadReq_miss_rate::total      0.506821                       # miss rate for ReadReq accesses
system.l2cache.ReadReq_avg_miss_latency::.cpu.inst 37899.285670                       # average ReadReq miss latency
system.l2cache.ReadReq_avg_miss_latency::.cpu.data 50074.739033                       # average ReadReq miss latency
system.l2cache.ReadReq_avg_miss_latency::total 43772.996016                       # average ReadReq miss latency
system.l2cache.ReadReq_mshr_misses::.cpu.inst        64956                       # number of ReadReq MSHR misses
system.l2cache.ReadReq_mshr_misses::.cpu.data        60544                       # number of ReadReq MSHR misses
system.l2cache.ReadReq_mshr_misses::total       125500                       # number of ReadReq MSHR misses
system.l2cache.ReadReq_mshr_miss_latency::.cpu.inst   2331874000                       # number of ReadReq MSHR miss cycles
system.l2cache.ReadReq_mshr_miss_latency::.cpu.data   2910637000                       # number of ReadReq MSHR miss cycles
system.l2cache.ReadReq_mshr_miss_latency::total   5242511000                       # number of ReadReq MSHR miss cycles
system.l2cache.ReadReq_mshr_miss_rate::.cpu.inst     0.431756                       # mshr miss rate for ReadReq accesses
system.l2cache.ReadReq_mshr_miss_rate::.cpu.data     0.623034                       # mshr miss rate for ReadReq accesses
system.l2cache.ReadReq_mshr_miss_rate::total     0.506821                       # mshr miss rate for ReadReq accesses
system.l2cache.ReadReq_avg_mshr_miss_latency::.cpu.inst 35899.285670                       # average ReadReq mshr miss latency
system.l2cache.ReadReq_avg_mshr_miss_latency::.cpu.data 48074.739033                       # average ReadReq mshr miss latency
system.l2cache.ReadReq_avg_mshr_miss_latency::total 41772.996016                       # average ReadReq mshr miss latency
system.l2cache.WritebackDirty_hits::.writebacks        50706                       # number of WritebackDirty hits
system.l2cache.WritebackDirty_hits::total        50706                       # number of WritebackDirty hits
system.l2cache.WritebackDirty_accesses::.writebacks        50706                       # number of WritebackDirty accesses(hits+misses)
system.l2cache.WritebackDirty_accesses::total        50706                       # number of WritebackDirty accesses(hits+misses)
system.l2cache.power_state.pwrStateResidencyTicks::UNDEFINED  31529007000                       # Cumulative time (in ticks) in various power states
system.l2cache.tags.tagsinuse              510.953052                       # Cycle average of tags in use
system.l2cache.tags.total_refs                 298328                       # Total number of references to valid blocks.
system.l2cache.tags.sampled_refs               149578                       # Sample count of references to valid blocks.
system.l2cache.tags.avg_refs                 1.994464                       # Average number of references to valid blocks.
system.l2cache.tags.warmup_cycle                78000                       # Cycle when the warmup percentage was hit.
system.l2cache.tags.occ_blocks::.writebacks   116.822878                       # Average occupied blocks per requestor
system.l2cache.tags.occ_blocks::.cpu.inst   133.623714                       # Average occupied blocks per requestor
system.l2cache.tags.occ_blocks::.cpu.data   260.506460                       # Average occupied blocks per requestor
system.l2cache.tags.occ_percent::.writebacks     0.228170                       # Average percentage of cache occupancy
system.l2cache.tags.occ_percent::.cpu.inst     0.260984                       # Average percentage of cache occupancy
system.l2cache.tags.occ_percent::.cpu.data     0.508802                       # Average percentage of cache occupancy
system.l2cache.tags.occ_percent::total       0.997955                       # Average percentage of cache occupancy
system.l2cache.tags.occ_task_id_blocks::1024          512                       # Occupied blocks per task id
system.l2cache.tags.age_task_id_blocks_1024::1           18                       # Occupied blocks per task id
system.l2cache.tags.age_task_id_blocks_1024::2          441                       # Occupied blocks per task id
system.l2cache.tags.age_task_id_blocks_1024::3           53                       # Occupied blocks per task id
system.l2cache.tags.occ_task_id_percent::1024            1                       # Percentage of cache occupancy per task id
system.l2cache.tags.tag_accesses               447906                       # Number of tag accesses
system.l2cache.tags.data_accesses              447906                       # Number of data accesses
system.l2cache.tags.power_state.pwrStateResidencyTicks::UNDEFINED  31529007000                       # Cumulative time (in ticks) in various power states
system.l2bar.trans_dist::ReadReq               247622                       # Transaction distribution
system.l2bar.trans_dist::ReadResp              247622                       # Transaction distribution
system.l2bar.trans_dist::WritebackDirty         50706                       # Transaction distribution
system.l2bar.pkt_count_system.dcache.mem_side::system.l2cache.cpu_side       245058                       # Packet count per connected master and slave (bytes)
system.l2bar.pkt_count_system.icache.mem_side::system.l2cache.cpu_side       300892                       # Packet count per connected master and slave (bytes)
system.l2bar.pkt_count::total                  545950                       # Packet count per connected master and slave (bytes)
system.l2bar.pkt_size_system.dcache.mem_side::system.l2cache.cpu_side      9464448                       # Cumulative packet size per connected master and slave (bytes)
system.l2bar.pkt_size_system.icache.mem_side::system.l2cache.cpu_side      9628544                       # Cumulative packet size per connected master and slave (bytes)
system.l2bar.pkt_size::total                 19092992                       # Cumulative packet size per connected master and slave (bytes)
system.l2bar.respLayer1.occupancy           752230000                       # Layer occupancy (ticks)
system.l2bar.respLayer1.utilization               2.4                       # Layer utilization (%)
system.l2bar.reqLayer0.occupancy            501152000                       # Layer occupancy (ticks)
system.l2bar.reqLayer0.utilization                1.6                       # Layer utilization (%)
system.l2bar.respLayer0.occupancy           485880000                       # Layer occupancy (ticks)
system.l2bar.respLayer0.utilization               1.5                       # Layer utilization (%)
system.l2bar.power_state.pwrStateResidencyTicks::UNDEFINED  31529007000                       # Cumulative time (in ticks) in various power states
system.cpu.dtb.walker.power_state.pwrStateResidencyTicks::UNDEFINED  31529007000                       # Cumulative time (in ticks) in various power states
system.cpu.interrupts.clk_domain.clock          16000                       # Clock period in ticks
system.cpu.itb.walker.power_state.pwrStateResidencyTicks::UNDEFINED  31529007000                       # Cumulative time (in ticks) in various power states
system.cpu.power_state.numTransitions               1                       # Number of power state transitions
system.cpu.power_state.pwrStateResidencyTicks::ON  31529007000                       # Cumulative time (in ticks) in various power states

---------- End Simulation Statistics   ----------
