
---------- Begin Simulation Statistics ----------
final_tick                                18043565000                       # Number of ticks from beginning of simulation (restored from checkpoints and never reset)
host_inst_rate                                  43054                       # Simulator instruction rate (inst/s)
host_mem_usage                               34202748                       # Number of bytes of host memory used
host_op_rate                                    77996                       # Simulator op (including micro ops) rate (op/s)
host_seconds                                    23.23                       # Real time elapsed on the host
host_tick_rate                              776837442                       # Simulator tick rate (ticks/s)
sim_freq                                 1000000000000                       # Frequency of simulated ticks
sim_insts                                     1000002                       # Number of instructions simulated
sim_ops                                       1811614                       # Number of ops (including micro ops) simulated
sim_seconds                                  0.018044                       # Number of seconds simulated
sim_ticks                                 18043565000                       # Number of ticks simulated
system.cpu.Branches                            201594                       # Number of branches fetched
system.cpu.committedInsts                     1000002                       # Number of instructions committed
system.cpu.committedOps                       1811614                       # Number of ops (including micro ops) committed
system.cpu.dtb.rdAccesses                      200959                       # TLB accesses on read requests
system.cpu.dtb.rdMisses                            18                       # TLB misses on read requests
system.cpu.dtb.wrAccesses                      246172                       # TLB accesses on write requests
system.cpu.dtb.wrMisses                         96260                       # TLB misses on write requests
system.cpu.idle_fraction                            0                       # Percentage of idle cycles
system.cpu.itb.rdAccesses                           0                       # TLB accesses on read requests
system.cpu.itb.rdMisses                             0                       # TLB misses on read requests
system.cpu.itb.wrAccesses                     1251628                       # TLB accesses on write requests
system.cpu.itb.wrMisses                            60                       # TLB misses on write requests
system.cpu.not_idle_fraction                        1                       # Percentage of non-idle cycles
system.cpu.numCycles                         18043554                       # number of cpu cycles simulated
system.cpu.numWorkItemsCompleted                    0                       # number of work items this cpu completed
system.cpu.numWorkItemsStarted                      0                       # number of work items this cpu started
system.cpu.num_busy_cycles                   18043554                       # Number of busy cycles
system.cpu.num_cc_register_reads              1012108                       # number of times the CC registers were read
system.cpu.num_cc_register_writes              794611                       # number of times the CC registers were written
system.cpu.num_conditional_control_insts       199499                       # number of instructions that are conditional controls
system.cpu.num_fp_alu_accesses                   2241                       # Number of float alu accesses
system.cpu.num_fp_insts                          2241                       # number of float instructions
system.cpu.num_fp_register_reads                 3642                       # number of times the floating registers were read
system.cpu.num_fp_register_writes                1736                       # number of times the floating registers were written
system.cpu.num_func_calls                        1306                       # number of times a function call or return occured
system.cpu.num_idle_cycles                          0                       # Number of idle cycles
system.cpu.num_int_alu_accesses               1857322                       # Number of integer alu accesses
system.cpu.num_int_insts                      1857322                       # number of integer instructions
system.cpu.num_int_register_reads             3422504                       # number of times the integer registers were read
system.cpu.num_int_register_writes            1410106                       # number of times the integer registers were written
system.cpu.num_load_insts                      200915                       # Number of load instructions
system.cpu.num_mem_refs                        447086                       # number of memory refs
system.cpu.num_store_insts                     246171                       # Number of store instructions
system.cpu.num_vec_alu_accesses                     0                       # Number of vector alu accesses
system.cpu.num_vec_insts                            0                       # number of vector instructions
system.cpu.num_vec_register_reads                   0                       # number of times the vector registers were read
system.cpu.num_vec_register_writes                  0                       # number of times the vector registers were written
system.cpu.op_class::No_OpClass                   846      0.05%      0.05% # Class of executed instruction
system.cpu.op_class::IntAlu                   1409874     75.81%     75.86% # Class of executed instruction
system.cpu.op_class::IntMult                      171      0.01%     75.86% # Class of executed instruction
system.cpu.op_class::IntDiv                        42      0.00%     75.87% # Class of executed instruction
system.cpu.op_class::FloatAdd                      13      0.00%     75.87% # Class of executed instruction
system.cpu.op_class::FloatCmp                       0      0.00%     75.87% # Class of executed instruction
system.cpu.op_class::FloatCvt                       0      0.00%     75.87% # Class of executed instruction
system.cpu.op_class::FloatMult                      0      0.00%     75.87% # Class of executed instruction
system.cpu.op_class::FloatMultAcc                   0      0.00%     75.87% # Class of executed instruction
system.cpu.op_class::FloatDiv                       0      0.00%     75.87% # Class of executed instruction
system.cpu.op_class::FloatMisc                      0      0.00%     75.87% # Class of executed instruction
system.cpu.op_class::FloatSqrt                      0      0.00%     75.87% # Class of executed instruction
system.cpu.op_class::SimdAdd                        0      0.00%     75.87% # Class of executed instruction
system.cpu.op_class::SimdAddAcc                     0      0.00%     75.87% # Class of executed instruction
system.cpu.op_class::SimdAlu                      956      0.05%     75.92% # Class of executed instruction
system.cpu.op_class::SimdCmp                        0      0.00%     75.92% # Class of executed instruction
system.cpu.op_class::SimdCvt                      336      0.02%     75.94% # Class of executed instruction
system.cpu.op_class::SimdMisc                     416      0.02%     75.96% # Class of executed instruction
system.cpu.op_class::SimdMult                       0      0.00%     75.96% # Class of executed instruction
system.cpu.op_class::SimdMultAcc                    0      0.00%     75.96% # Class of executed instruction
system.cpu.op_class::SimdShift                      0      0.00%     75.96% # Class of executed instruction
system.cpu.op_class::SimdShiftAcc                   0      0.00%     75.96% # Class of executed instruction
system.cpu.op_class::SimdDiv                        0      0.00%     75.96% # Class of executed instruction
system.cpu.op_class::SimdSqrt                       0      0.00%     75.96% # Class of executed instruction
system.cpu.op_class::SimdFloatAdd                   0      0.00%     75.96% # Class of executed instruction
system.cpu.op_class::SimdFloatAlu                   0      0.00%     75.96% # Class of executed instruction
system.cpu.op_class::SimdFloatCmp                   0      0.00%     75.96% # Class of executed instruction
system.cpu.op_class::SimdFloatCvt                   0      0.00%     75.96% # Class of executed instruction
system.cpu.op_class::SimdFloatDiv                   0      0.00%     75.96% # Class of executed instruction
system.cpu.op_class::SimdFloatMisc                  0      0.00%     75.96% # Class of executed instruction
system.cpu.op_class::SimdFloatMult                  0      0.00%     75.96% # Class of executed instruction
system.cpu.op_class::SimdFloatMultAcc               0      0.00%     75.96% # Class of executed instruction
system.cpu.op_class::SimdFloatSqrt                  0      0.00%     75.96% # Class of executed instruction
system.cpu.op_class::SimdReduceAdd                  0      0.00%     75.96% # Class of executed instruction
system.cpu.op_class::SimdReduceAlu                  0      0.00%     75.96% # Class of executed instruction
system.cpu.op_class::SimdReduceCmp                  0      0.00%     75.96% # Class of executed instruction
system.cpu.op_class::SimdFloatReduceAdd             0      0.00%     75.96% # Class of executed instruction
system.cpu.op_class::SimdFloatReduceCmp             0      0.00%     75.96% # Class of executed instruction
system.cpu.op_class::SimdAes                        0      0.00%     75.96% # Class of executed instruction
system.cpu.op_class::SimdAesMix                     0      0.00%     75.96% # Class of executed instruction
system.cpu.op_class::SimdSha1Hash                   0      0.00%     75.96% # Class of executed instruction
system.cpu.op_class::SimdSha1Hash2                  0      0.00%     75.96% # Class of executed instruction
system.cpu.op_class::SimdSha256Hash                 0      0.00%     75.96% # Class of executed instruction
system.cpu.op_class::SimdSha256Hash2                0      0.00%     75.96% # Class of executed instruction
system.cpu.op_class::SimdShaSigma2                  0      0.00%     75.96% # Class of executed instruction
system.cpu.op_class::SimdShaSigma3                  0      0.00%     75.96% # Class of executed instruction
system.cpu.op_class::SimdPredAlu                    0      0.00%     75.96% # Class of executed instruction
system.cpu.op_class::MemRead                   200599     10.79%     86.75% # Class of executed instruction
system.cpu.op_class::MemWrite                  245995     13.23%     99.97% # Class of executed instruction
system.cpu.op_class::FloatMemRead                 316      0.02%     99.99% # Class of executed instruction
system.cpu.op_class::FloatMemWrite                176      0.01%    100.00% # Class of executed instruction
system.cpu.op_class::IprAccess                      0      0.00%    100.00% # Class of executed instruction
system.cpu.op_class::InstPrefetch                   0      0.00%    100.00% # Class of executed instruction
system.cpu.op_class::total                    1859740                       # Class of executed instruction
system.cpu.workload.numSyscalls                    28                       # Number of system calls
system.dynamic_cache.flushTicks                     0                       # Ticks taken to flush
system.dynamic_cache.numFlushes                     0                       # Number of Flushes Taken
system.cache_small.demand_hits::.cpu.inst           69                       # number of demand (read+write) hits
system.cache_small.demand_hits::.cpu.data           10                       # number of demand (read+write) hits
system.cache_small.demand_hits::total              79                       # number of demand (read+write) hits
system.cache_small.overall_hits::.cpu.inst           69                       # number of overall hits
system.cache_small.overall_hits::.cpu.data           10                       # number of overall hits
system.cache_small.overall_hits::total             79                       # number of overall hits
system.cache_small.demand_misses::.cpu.inst          646                       # number of demand (read+write) misses
system.cache_small.demand_misses::.cpu.data       192787                       # number of demand (read+write) misses
system.cache_small.demand_misses::total        193433                       # number of demand (read+write) misses
system.cache_small.overall_misses::.cpu.inst          646                       # number of overall misses
system.cache_small.overall_misses::.cpu.data       192787                       # number of overall misses
system.cache_small.overall_misses::total       193433                       # number of overall misses
system.cache_small.demand_miss_latency::.cpu.inst     38113000                       # number of demand (read+write) miss cycles
system.cache_small.demand_miss_latency::.cpu.data  11797412000                       # number of demand (read+write) miss cycles
system.cache_small.demand_miss_latency::total  11835525000                       # number of demand (read+write) miss cycles
system.cache_small.overall_miss_latency::.cpu.inst     38113000                       # number of overall miss cycles
system.cache_small.overall_miss_latency::.cpu.data  11797412000                       # number of overall miss cycles
system.cache_small.overall_miss_latency::total  11835525000                       # number of overall miss cycles
system.cache_small.demand_accesses::.cpu.inst          715                       # number of demand (read+write) accesses
system.cache_small.demand_accesses::.cpu.data       192797                       # number of demand (read+write) accesses
system.cache_small.demand_accesses::total       193512                       # number of demand (read+write) accesses
system.cache_small.overall_accesses::.cpu.inst          715                       # number of overall (read+write) accesses
system.cache_small.overall_accesses::.cpu.data       192797                       # number of overall (read+write) accesses
system.cache_small.overall_accesses::total       193512                       # number of overall (read+write) accesses
system.cache_small.demand_miss_rate::.cpu.inst     0.903497                       # miss rate for demand accesses
system.cache_small.demand_miss_rate::.cpu.data     0.999948                       # miss rate for demand accesses
system.cache_small.demand_miss_rate::total     0.999592                       # miss rate for demand accesses
system.cache_small.overall_miss_rate::.cpu.inst     0.903497                       # miss rate for overall accesses
system.cache_small.overall_miss_rate::.cpu.data     0.999948                       # miss rate for overall accesses
system.cache_small.overall_miss_rate::total     0.999592                       # miss rate for overall accesses
system.cache_small.demand_avg_miss_latency::.cpu.inst 58998.452012                       # average overall miss latency
system.cache_small.demand_avg_miss_latency::.cpu.data 61194.022419                       # average overall miss latency
system.cache_small.demand_avg_miss_latency::total 61186.689965                       # average overall miss latency
system.cache_small.overall_avg_miss_latency::.cpu.inst 58998.452012                       # average overall miss latency
system.cache_small.overall_avg_miss_latency::.cpu.data 61194.022419                       # average overall miss latency
system.cache_small.overall_avg_miss_latency::total 61186.689965                       # average overall miss latency
system.cache_small.blocked_cycles::no_mshrs            0                       # number of cycles access was blocked
system.cache_small.blocked_cycles::no_targets            0                       # number of cycles access was blocked
system.cache_small.blocked::no_mshrs                0                       # number of cycles access was blocked
system.cache_small.blocked::no_targets              0                       # number of cycles access was blocked
system.cache_small.avg_blocked_cycles::no_mshrs          nan                       # average number of cycles each access was blocked
system.cache_small.avg_blocked_cycles::no_targets          nan                       # average number of cycles each access was blocked
system.cache_small.writebacks::.writebacks       192376                       # number of writebacks
system.cache_small.writebacks::total           192376                       # number of writebacks
system.cache_small.demand_mshr_misses::.cpu.inst          646                       # number of demand (read+write) MSHR misses
system.cache_small.demand_mshr_misses::.cpu.data       192787                       # number of demand (read+write) MSHR misses
system.cache_small.demand_mshr_misses::total       193433                       # number of demand (read+write) MSHR misses
system.cache_small.overall_mshr_misses::.cpu.inst          646                       # number of overall MSHR misses
system.cache_small.overall_mshr_misses::.cpu.data       192787                       # number of overall MSHR misses
system.cache_small.overall_mshr_misses::total       193433                       # number of overall MSHR misses
system.cache_small.demand_mshr_miss_latency::.cpu.inst     36821000                       # number of demand (read+write) MSHR miss cycles
system.cache_small.demand_mshr_miss_latency::.cpu.data  11411838000                       # number of demand (read+write) MSHR miss cycles
system.cache_small.demand_mshr_miss_latency::total  11448659000                       # number of demand (read+write) MSHR miss cycles
system.cache_small.overall_mshr_miss_latency::.cpu.inst     36821000                       # number of overall MSHR miss cycles
system.cache_small.overall_mshr_miss_latency::.cpu.data  11411838000                       # number of overall MSHR miss cycles
system.cache_small.overall_mshr_miss_latency::total  11448659000                       # number of overall MSHR miss cycles
system.cache_small.demand_mshr_miss_rate::.cpu.inst     0.903497                       # mshr miss rate for demand accesses
system.cache_small.demand_mshr_miss_rate::.cpu.data     0.999948                       # mshr miss rate for demand accesses
system.cache_small.demand_mshr_miss_rate::total     0.999592                       # mshr miss rate for demand accesses
system.cache_small.overall_mshr_miss_rate::.cpu.inst     0.903497                       # mshr miss rate for overall accesses
system.cache_small.overall_mshr_miss_rate::.cpu.data     0.999948                       # mshr miss rate for overall accesses
system.cache_small.overall_mshr_miss_rate::total     0.999592                       # mshr miss rate for overall accesses
system.cache_small.demand_avg_mshr_miss_latency::.cpu.inst 56998.452012                       # average overall mshr miss latency
system.cache_small.demand_avg_mshr_miss_latency::.cpu.data 59194.022419                       # average overall mshr miss latency
system.cache_small.demand_avg_mshr_miss_latency::total 59186.689965                       # average overall mshr miss latency
system.cache_small.overall_avg_mshr_miss_latency::.cpu.inst 56998.452012                       # average overall mshr miss latency
system.cache_small.overall_avg_mshr_miss_latency::.cpu.data 59194.022419                       # average overall mshr miss latency
system.cache_small.overall_avg_mshr_miss_latency::total 59186.689965                       # average overall mshr miss latency
system.cache_small.replacements                192589                       # number of replacements
system.cache_small.ReadReq_hits::.cpu.inst           69                       # number of ReadReq hits
system.cache_small.ReadReq_hits::.cpu.data           10                       # number of ReadReq hits
system.cache_small.ReadReq_hits::total             79                       # number of ReadReq hits
system.cache_small.ReadReq_misses::.cpu.inst          646                       # number of ReadReq misses
system.cache_small.ReadReq_misses::.cpu.data       192787                       # number of ReadReq misses
system.cache_small.ReadReq_misses::total       193433                       # number of ReadReq misses
system.cache_small.ReadReq_miss_latency::.cpu.inst     38113000                       # number of ReadReq miss cycles
system.cache_small.ReadReq_miss_latency::.cpu.data  11797412000                       # number of ReadReq miss cycles
system.cache_small.ReadReq_miss_latency::total  11835525000                       # number of ReadReq miss cycles
system.cache_small.ReadReq_accesses::.cpu.inst          715                       # number of ReadReq accesses(hits+misses)
system.cache_small.ReadReq_accesses::.cpu.data       192797                       # number of ReadReq accesses(hits+misses)
system.cache_small.ReadReq_accesses::total       193512                       # number of ReadReq accesses(hits+misses)
system.cache_small.ReadReq_miss_rate::.cpu.inst     0.903497                       # miss rate for ReadReq accesses
system.cache_small.ReadReq_miss_rate::.cpu.data     0.999948                       # miss rate for ReadReq accesses
system.cache_small.ReadReq_miss_rate::total     0.999592                       # miss rate for ReadReq accesses
system.cache_small.ReadReq_avg_miss_latency::.cpu.inst 58998.452012                       # average ReadReq miss latency
system.cache_small.ReadReq_avg_miss_latency::.cpu.data 61194.022419                       # average ReadReq miss latency
system.cache_small.ReadReq_avg_miss_latency::total 61186.689965                       # average ReadReq miss latency
system.cache_small.ReadReq_mshr_misses::.cpu.inst          646                       # number of ReadReq MSHR misses
system.cache_small.ReadReq_mshr_misses::.cpu.data       192787                       # number of ReadReq MSHR misses
system.cache_small.ReadReq_mshr_misses::total       193433                       # number of ReadReq MSHR misses
system.cache_small.ReadReq_mshr_miss_latency::.cpu.inst     36821000                       # number of ReadReq MSHR miss cycles
system.cache_small.ReadReq_mshr_miss_latency::.cpu.data  11411838000                       # number of ReadReq MSHR miss cycles
system.cache_small.ReadReq_mshr_miss_latency::total  11448659000                       # number of ReadReq MSHR miss cycles
system.cache_small.ReadReq_mshr_miss_rate::.cpu.inst     0.903497                       # mshr miss rate for ReadReq accesses
system.cache_small.ReadReq_mshr_miss_rate::.cpu.data     0.999948                       # mshr miss rate for ReadReq accesses
system.cache_small.ReadReq_mshr_miss_rate::total     0.999592                       # mshr miss rate for ReadReq accesses
system.cache_small.ReadReq_avg_mshr_miss_latency::.cpu.inst 56998.452012                       # average ReadReq mshr miss latency
system.cache_small.ReadReq_avg_mshr_miss_latency::.cpu.data 59194.022419                       # average ReadReq mshr miss latency
system.cache_small.ReadReq_avg_mshr_miss_latency::total 59186.689965                       # average ReadReq mshr miss latency
system.cache_small.WritebackDirty_hits::.writebacks       192515                       # number of WritebackDirty hits
system.cache_small.WritebackDirty_hits::total       192515                       # number of WritebackDirty hits
system.cache_small.WritebackDirty_accesses::.writebacks       192515                       # number of WritebackDirty accesses(hits+misses)
system.cache_small.WritebackDirty_accesses::total       192515                       # number of WritebackDirty accesses(hits+misses)
system.cache_small.power_state.pwrStateResidencyTicks::UNDEFINED  18043565000                       # Cumulative time (in ticks) in various power states
system.cache_small.tags.tagsinuse          861.715006                       # Cycle average of tags in use
system.cache_small.tags.total_refs             384963                       # Total number of references to valid blocks.
system.cache_small.tags.sampled_refs           192589                       # Sample count of references to valid blocks.
system.cache_small.tags.avg_refs             1.998884                       # Average number of references to valid blocks.
system.cache_small.tags.warmup_cycle            76000                       # Cycle when the warmup percentage was hit.
system.cache_small.tags.occ_blocks::.writebacks     9.900337                       # Average occupied blocks per requestor
system.cache_small.tags.occ_blocks::.cpu.inst   489.758014                       # Average occupied blocks per requestor
system.cache_small.tags.occ_blocks::.cpu.data   362.056655                       # Average occupied blocks per requestor
system.cache_small.tags.occ_percent::.writebacks     0.004834                       # Average percentage of cache occupancy
system.cache_small.tags.occ_percent::.cpu.inst     0.239140                       # Average percentage of cache occupancy
system.cache_small.tags.occ_percent::.cpu.data     0.176785                       # Average percentage of cache occupancy
system.cache_small.tags.occ_percent::total     0.420759                       # Average percentage of cache occupancy
system.cache_small.tags.occ_task_id_blocks::1024          866                       # Occupied blocks per task id
system.cache_small.tags.age_task_id_blocks_1024::0          108                       # Occupied blocks per task id
system.cache_small.tags.age_task_id_blocks_1024::1           20                       # Occupied blocks per task id
system.cache_small.tags.age_task_id_blocks_1024::4          738                       # Occupied blocks per task id
system.cache_small.tags.occ_task_id_percent::1024     0.422852                       # Percentage of cache occupancy per task id
system.cache_small.tags.tag_accesses           579482                       # Number of tag accesses
system.cache_small.tags.data_accesses          579482                       # Number of data accesses
system.cache_small.tags.power_state.pwrStateResidencyTicks::UNDEFINED  18043565000                       # Cumulative time (in ticks) in various power states
system.icache.demand_hits::.cpu.inst          1250871                       # number of demand (read+write) hits
system.icache.demand_hits::total              1250871                       # number of demand (read+write) hits
system.icache.overall_hits::.cpu.inst         1250871                       # number of overall hits
system.icache.overall_hits::total             1250871                       # number of overall hits
system.icache.demand_misses::.cpu.inst            757                       # number of demand (read+write) misses
system.icache.demand_misses::total                757                       # number of demand (read+write) misses
system.icache.overall_misses::.cpu.inst           757                       # number of overall misses
system.icache.overall_misses::total               757                       # number of overall misses
system.icache.demand_miss_latency::.cpu.inst     51055000                       # number of demand (read+write) miss cycles
system.icache.demand_miss_latency::total     51055000                       # number of demand (read+write) miss cycles
system.icache.overall_miss_latency::.cpu.inst     51055000                       # number of overall miss cycles
system.icache.overall_miss_latency::total     51055000                       # number of overall miss cycles
system.icache.demand_accesses::.cpu.inst      1251628                       # number of demand (read+write) accesses
system.icache.demand_accesses::total          1251628                       # number of demand (read+write) accesses
system.icache.overall_accesses::.cpu.inst      1251628                       # number of overall (read+write) accesses
system.icache.overall_accesses::total         1251628                       # number of overall (read+write) accesses
system.icache.demand_miss_rate::.cpu.inst     0.000605                       # miss rate for demand accesses
system.icache.demand_miss_rate::total        0.000605                       # miss rate for demand accesses
system.icache.overall_miss_rate::.cpu.inst     0.000605                       # miss rate for overall accesses
system.icache.overall_miss_rate::total       0.000605                       # miss rate for overall accesses
system.icache.demand_avg_miss_latency::.cpu.inst 67443.857332                       # average overall miss latency
system.icache.demand_avg_miss_latency::total 67443.857332                       # average overall miss latency
system.icache.overall_avg_miss_latency::.cpu.inst 67443.857332                       # average overall miss latency
system.icache.overall_avg_miss_latency::total 67443.857332                       # average overall miss latency
system.icache.blocked_cycles::no_mshrs              0                       # number of cycles access was blocked
system.icache.blocked_cycles::no_targets            0                       # number of cycles access was blocked
system.icache.blocked::no_mshrs                     0                       # number of cycles access was blocked
system.icache.blocked::no_targets                   0                       # number of cycles access was blocked
system.icache.avg_blocked_cycles::no_mshrs          nan                       # average number of cycles each access was blocked
system.icache.avg_blocked_cycles::no_targets          nan                       # average number of cycles each access was blocked
system.icache.demand_mshr_misses::.cpu.inst          757                       # number of demand (read+write) MSHR misses
system.icache.demand_mshr_misses::total           757                       # number of demand (read+write) MSHR misses
system.icache.overall_mshr_misses::.cpu.inst          757                       # number of overall MSHR misses
system.icache.overall_mshr_misses::total          757                       # number of overall MSHR misses
system.icache.demand_mshr_miss_latency::.cpu.inst     49541000                       # number of demand (read+write) MSHR miss cycles
system.icache.demand_mshr_miss_latency::total     49541000                       # number of demand (read+write) MSHR miss cycles
system.icache.overall_mshr_miss_latency::.cpu.inst     49541000                       # number of overall MSHR miss cycles
system.icache.overall_mshr_miss_latency::total     49541000                       # number of overall MSHR miss cycles
system.icache.demand_mshr_miss_rate::.cpu.inst     0.000605                       # mshr miss rate for demand accesses
system.icache.demand_mshr_miss_rate::total     0.000605                       # mshr miss rate for demand accesses
system.icache.overall_mshr_miss_rate::.cpu.inst     0.000605                       # mshr miss rate for overall accesses
system.icache.overall_mshr_miss_rate::total     0.000605                       # mshr miss rate for overall accesses
system.icache.demand_avg_mshr_miss_latency::.cpu.inst 65443.857332                       # average overall mshr miss latency
system.icache.demand_avg_mshr_miss_latency::total 65443.857332                       # average overall mshr miss latency
system.icache.overall_avg_mshr_miss_latency::.cpu.inst 65443.857332                       # average overall mshr miss latency
system.icache.overall_avg_mshr_miss_latency::total 65443.857332                       # average overall mshr miss latency
system.icache.replacements                        510                       # number of replacements
system.icache.ReadReq_hits::.cpu.inst         1250871                       # number of ReadReq hits
system.icache.ReadReq_hits::total             1250871                       # number of ReadReq hits
system.icache.ReadReq_misses::.cpu.inst           757                       # number of ReadReq misses
system.icache.ReadReq_misses::total               757                       # number of ReadReq misses
system.icache.ReadReq_miss_latency::.cpu.inst     51055000                       # number of ReadReq miss cycles
system.icache.ReadReq_miss_latency::total     51055000                       # number of ReadReq miss cycles
system.icache.ReadReq_accesses::.cpu.inst      1251628                       # number of ReadReq accesses(hits+misses)
system.icache.ReadReq_accesses::total         1251628                       # number of ReadReq accesses(hits+misses)
system.icache.ReadReq_miss_rate::.cpu.inst     0.000605                       # miss rate for ReadReq accesses
system.icache.ReadReq_miss_rate::total       0.000605                       # miss rate for ReadReq accesses
system.icache.ReadReq_avg_miss_latency::.cpu.inst 67443.857332                       # average ReadReq miss latency
system.icache.ReadReq_avg_miss_latency::total 67443.857332                       # average ReadReq miss latency
system.icache.ReadReq_mshr_misses::.cpu.inst          757                       # number of ReadReq MSHR misses
system.icache.ReadReq_mshr_misses::total          757                       # number of ReadReq MSHR misses
system.icache.ReadReq_mshr_miss_latency::.cpu.inst     49541000                       # number of ReadReq MSHR miss cycles
system.icache.ReadReq_mshr_miss_latency::total     49541000                       # number of ReadReq MSHR miss cycles
system.icache.ReadReq_mshr_miss_rate::.cpu.inst     0.000605                       # mshr miss rate for ReadReq accesses
system.icache.ReadReq_mshr_miss_rate::total     0.000605                       # mshr miss rate for ReadReq accesses
system.icache.ReadReq_avg_mshr_miss_latency::.cpu.inst 65443.857332                       # average ReadReq mshr miss latency
system.icache.ReadReq_avg_mshr_miss_latency::total 65443.857332                       # average ReadReq mshr miss latency
system.icache.power_state.pwrStateResidencyTicks::UNDEFINED  18043565000                       # Cumulative time (in ticks) in various power states
system.icache.tags.tagsinuse               246.340328                       # Cycle average of tags in use
system.icache.tags.total_refs                   33715                       # Total number of references to valid blocks.
system.icache.tags.sampled_refs                   510                       # Sample count of references to valid blocks.
system.icache.tags.avg_refs                 66.107843                       # Average number of references to valid blocks.
system.icache.tags.warmup_cycle                 82000                       # Cycle when the warmup percentage was hit.
system.icache.tags.occ_blocks::.cpu.inst   246.340328                       # Average occupied blocks per requestor
system.icache.tags.occ_percent::.cpu.inst     0.962267                       # Average percentage of cache occupancy
system.icache.tags.occ_percent::total        0.962267                       # Average percentage of cache occupancy
system.icache.tags.occ_task_id_blocks::1024          247                       # Occupied blocks per task id
system.icache.tags.age_task_id_blocks_1024::4          247                       # Occupied blocks per task id
system.icache.tags.occ_task_id_percent::1024     0.964844                       # Percentage of cache occupancy per task id
system.icache.tags.tag_accesses               1252385                       # Number of tag accesses
system.icache.tags.data_accesses              1252385                       # Number of data accesses
system.icache.tags.power_state.pwrStateResidencyTicks::UNDEFINED  18043565000                       # Cumulative time (in ticks) in various power states
system.membus.trans_dist::ReadReq              193433                       # Transaction distribution
system.membus.trans_dist::ReadResp             193433                       # Transaction distribution
system.membus.trans_dist::WritebackDirty       192376                       # Transaction distribution
system.membus.pkt_count_system.cache_small.mem_side::system.mem_ctrl.port       579242                       # Packet count per connected master and slave (bytes)
system.membus.pkt_count_system.cache_small.mem_side::total       579242                       # Packet count per connected master and slave (bytes)
system.membus.pkt_count::total                 579242                       # Packet count per connected master and slave (bytes)
system.membus.pkt_size_system.cache_small.mem_side::system.mem_ctrl.port     24691776                       # Cumulative packet size per connected master and slave (bytes)
system.membus.pkt_size_system.cache_small.mem_side::total     24691776                       # Cumulative packet size per connected master and slave (bytes)
system.membus.pkt_size::total                24691776                       # Cumulative packet size per connected master and slave (bytes)
system.membus.reqLayer2.occupancy          1155313000                       # Layer occupancy (ticks)
system.membus.reqLayer2.utilization               6.4                       # Layer utilization (%)
system.membus.respLayer1.occupancy         1023713750                       # Layer occupancy (ticks)
system.membus.respLayer1.utilization              5.7                       # Layer utilization (%)
system.membus.power_state.pwrStateResidencyTicks::UNDEFINED  18043565000                       # Cumulative time (in ticks) in various power states
system.mem_ctrl.bytes_read::.cpu.inst           41344                       # Number of bytes read from this memory
system.mem_ctrl.bytes_read::.cpu.data        12338368                       # Number of bytes read from this memory
system.mem_ctrl.bytes_read::total            12379712                       # Number of bytes read from this memory
system.mem_ctrl.bytes_inst_read::.cpu.inst        41344                       # Number of instructions bytes read from this memory
system.mem_ctrl.bytes_inst_read::total          41344                       # Number of instructions bytes read from this memory
system.mem_ctrl.bytes_written::.writebacks     12312064                       # Number of bytes written to this memory
system.mem_ctrl.bytes_written::total         12312064                       # Number of bytes written to this memory
system.mem_ctrl.num_reads::.cpu.inst              646                       # Number of read requests responded to by this memory
system.mem_ctrl.num_reads::.cpu.data           192787                       # Number of read requests responded to by this memory
system.mem_ctrl.num_reads::total               193433                       # Number of read requests responded to by this memory
system.mem_ctrl.num_writes::.writebacks        192376                       # Number of write requests responded to by this memory
system.mem_ctrl.num_writes::total              192376                       # Number of write requests responded to by this memory
system.mem_ctrl.bw_read::.cpu.inst            2291343                       # Total read bandwidth from this memory (bytes/s)
system.mem_ctrl.bw_read::.cpu.data          683809879                       # Total read bandwidth from this memory (bytes/s)
system.mem_ctrl.bw_read::total              686101222                       # Total read bandwidth from this memory (bytes/s)
system.mem_ctrl.bw_inst_read::.cpu.inst       2291343                       # Instruction read bandwidth from this memory (bytes/s)
system.mem_ctrl.bw_inst_read::total           2291343                       # Instruction read bandwidth from this memory (bytes/s)
system.mem_ctrl.bw_write::.writebacks       682352074                       # Write bandwidth from this memory (bytes/s)
system.mem_ctrl.bw_write::total             682352074                       # Write bandwidth from this memory (bytes/s)
system.mem_ctrl.bw_total::.writebacks       682352074                       # Total bandwidth to/from this memory (bytes/s)
system.mem_ctrl.bw_total::.cpu.inst           2291343                       # Total bandwidth to/from this memory (bytes/s)
system.mem_ctrl.bw_total::.cpu.data         683809879                       # Total bandwidth to/from this memory (bytes/s)
system.mem_ctrl.bw_total::total            1368453296                       # Total bandwidth to/from this memory (bytes/s)
system.mem_ctrl.avgPriority_.writebacks::samples    192376.00                       # Average QoS priority value for accepted requests
system.mem_ctrl.avgPriority_.cpu.inst::samples       646.00                       # Average QoS priority value for accepted requests
system.mem_ctrl.avgPriority_.cpu.data::samples    192787.00                       # Average QoS priority value for accepted requests
system.mem_ctrl.priorityMinLatency       0.000000018750                       # per QoS priority minimum request to response latency (s)
system.mem_ctrl.priorityMaxLatency       0.000048425750                       # per QoS priority maximum request to response latency (s)
system.mem_ctrl.numReadWriteTurnArounds         12022                       # Number of turnarounds from READ to WRITE
system.mem_ctrl.numWriteReadTurnArounds         12022                       # Number of turnarounds from WRITE to READ
system.mem_ctrl.numStayReadState               571851                       # Number of times bus staying in READ state
system.mem_ctrl.numStayWriteState              180341                       # Number of times bus staying in WRITE state
system.mem_ctrl.readReqs                       193433                       # Number of read requests accepted
system.mem_ctrl.writeReqs                      192376                       # Number of write requests accepted
system.mem_ctrl.readBursts                     193433                       # Number of DRAM read bursts, including those serviced by the write queue
system.mem_ctrl.writeBursts                    192376                       # Number of DRAM write bursts, including those merged in the write queue
system.mem_ctrl.servicedByWrQ                       0                       # Number of DRAM read bursts serviced by the write queue
system.mem_ctrl.mergedWrBursts                      0                       # Number of DRAM write bursts merged with an existing one
system.mem_ctrl.neitherReadNorWriteReqs             0                       # Number of requests that are neither read nor write
system.mem_ctrl.perBankRdBursts::0              12153                       # Per bank write bursts
system.mem_ctrl.perBankRdBursts::1              12066                       # Per bank write bursts
system.mem_ctrl.perBankRdBursts::2              12093                       # Per bank write bursts
system.mem_ctrl.perBankRdBursts::3              12049                       # Per bank write bursts
system.mem_ctrl.perBankRdBursts::4              12115                       # Per bank write bursts
system.mem_ctrl.perBankRdBursts::5              12071                       # Per bank write bursts
system.mem_ctrl.perBankRdBursts::6              12073                       # Per bank write bursts
system.mem_ctrl.perBankRdBursts::7              12130                       # Per bank write bursts
system.mem_ctrl.perBankRdBursts::8              12057                       # Per bank write bursts
system.mem_ctrl.perBankRdBursts::9              12042                       # Per bank write bursts
system.mem_ctrl.perBankRdBursts::10             12095                       # Per bank write bursts
system.mem_ctrl.perBankRdBursts::11             12068                       # Per bank write bursts
system.mem_ctrl.perBankRdBursts::12             12103                       # Per bank write bursts
system.mem_ctrl.perBankRdBursts::13             12088                       # Per bank write bursts
system.mem_ctrl.perBankRdBursts::14             12148                       # Per bank write bursts
system.mem_ctrl.perBankRdBursts::15             12082                       # Per bank write bursts
system.mem_ctrl.perBankWrBursts::0              12016                       # Per bank write bursts
system.mem_ctrl.perBankWrBursts::1              12016                       # Per bank write bursts
system.mem_ctrl.perBankWrBursts::2              12017                       # Per bank write bursts
system.mem_ctrl.perBankWrBursts::3              12024                       # Per bank write bursts
system.mem_ctrl.perBankWrBursts::4              12026                       # Per bank write bursts
system.mem_ctrl.perBankWrBursts::5              12027                       # Per bank write bursts
system.mem_ctrl.perBankWrBursts::6              12024                       # Per bank write bursts
system.mem_ctrl.perBankWrBursts::7              12024                       # Per bank write bursts
system.mem_ctrl.perBankWrBursts::8              12025                       # Per bank write bursts
system.mem_ctrl.perBankWrBursts::9              12024                       # Per bank write bursts
system.mem_ctrl.perBankWrBursts::10             12024                       # Per bank write bursts
system.mem_ctrl.perBankWrBursts::11             12025                       # Per bank write bursts
system.mem_ctrl.perBankWrBursts::12             12026                       # Per bank write bursts
system.mem_ctrl.perBankWrBursts::13             12022                       # Per bank write bursts
system.mem_ctrl.perBankWrBursts::14             12021                       # Per bank write bursts
system.mem_ctrl.perBankWrBursts::15             12017                       # Per bank write bursts
system.mem_ctrl.avgRdQLen                        1.00                       # Average read queue length when enqueuing
system.mem_ctrl.avgWrQLen                       25.50                       # Average write queue length when enqueuing
system.mem_ctrl.totQLat                    1768818250                       # Total ticks spent queuing
system.mem_ctrl.totBusLat                   967165000                       # Total ticks spent in databus transfers
system.mem_ctrl.totMemAccLat               5395687000                       # Total ticks spent from burst creation until serviced by the DRAM
system.mem_ctrl.avgQLat                       9144.35                       # Average queueing delay per DRAM burst
system.mem_ctrl.avgBusLat                     5000.00                       # Average bus latency per DRAM burst
system.mem_ctrl.avgMemAccLat                 27894.35                       # Average memory access latency per DRAM burst
system.mem_ctrl.numRdRetry                          0                       # Number of times read queue was full causing retry
system.mem_ctrl.numWrRetry                          0                       # Number of times write queue was full causing retry
system.mem_ctrl.readRowHits                    166823                       # Number of row buffer hits during reads
system.mem_ctrl.writeRowHits                   166015                       # Number of row buffer hits during writes
system.mem_ctrl.readRowHitRate                  86.24                       # Row buffer hit rate for reads
system.mem_ctrl.writeRowHitRate                 86.30                       # Row buffer hit rate for writes
system.mem_ctrl.readPktSize::0                      0                       # Read request sizes (log2)
system.mem_ctrl.readPktSize::1                      0                       # Read request sizes (log2)
system.mem_ctrl.readPktSize::2                      0                       # Read request sizes (log2)
system.mem_ctrl.readPktSize::3                      0                       # Read request sizes (log2)
system.mem_ctrl.readPktSize::4                      0                       # Read request sizes (log2)
system.mem_ctrl.readPktSize::5                      0                       # Read request sizes (log2)
system.mem_ctrl.readPktSize::6                 193433                       # Read request sizes (log2)
system.mem_ctrl.writePktSize::0                     0                       # Write request sizes (log2)
system.mem_ctrl.writePktSize::1                     0                       # Write request sizes (log2)
system.mem_ctrl.writePktSize::2                     0                       # Write request sizes (log2)
system.mem_ctrl.writePktSize::3                     0                       # Write request sizes (log2)
system.mem_ctrl.writePktSize::4                     0                       # Write request sizes (log2)
system.mem_ctrl.writePktSize::5                     0                       # Write request sizes (log2)
system.mem_ctrl.writePktSize::6                192376                       # Write request sizes (log2)
system.mem_ctrl.rdQLenPdf::0                   193432                       # What read queue length does an incoming req see
system.mem_ctrl.rdQLenPdf::1                        1                       # What read queue length does an incoming req see
system.mem_ctrl.rdQLenPdf::2                        0                       # What read queue length does an incoming req see
system.mem_ctrl.rdQLenPdf::3                        0                       # What read queue length does an incoming req see
system.mem_ctrl.rdQLenPdf::4                        0                       # What read queue length does an incoming req see
system.mem_ctrl.rdQLenPdf::5                        0                       # What read queue length does an incoming req see
system.mem_ctrl.rdQLenPdf::6                        0                       # What read queue length does an incoming req see
system.mem_ctrl.rdQLenPdf::7                        0                       # What read queue length does an incoming req see
system.mem_ctrl.rdQLenPdf::8                        0                       # What read queue length does an incoming req see
system.mem_ctrl.rdQLenPdf::9                        0                       # What read queue length does an incoming req see
system.mem_ctrl.rdQLenPdf::10                       0                       # What read queue length does an incoming req see
system.mem_ctrl.rdQLenPdf::11                       0                       # What read queue length does an incoming req see
system.mem_ctrl.rdQLenPdf::12                       0                       # What read queue length does an incoming req see
system.mem_ctrl.rdQLenPdf::13                       0                       # What read queue length does an incoming req see
system.mem_ctrl.rdQLenPdf::14                       0                       # What read queue length does an incoming req see
system.mem_ctrl.rdQLenPdf::15                       0                       # What read queue length does an incoming req see
system.mem_ctrl.rdQLenPdf::16                       0                       # What read queue length does an incoming req see
system.mem_ctrl.rdQLenPdf::17                       0                       # What read queue length does an incoming req see
system.mem_ctrl.rdQLenPdf::18                       0                       # What read queue length does an incoming req see
system.mem_ctrl.rdQLenPdf::19                       0                       # What read queue length does an incoming req see
system.mem_ctrl.rdQLenPdf::20                       0                       # What read queue length does an incoming req see
system.mem_ctrl.rdQLenPdf::21                       0                       # What read queue length does an incoming req see
system.mem_ctrl.rdQLenPdf::22                       0                       # What read queue length does an incoming req see
system.mem_ctrl.rdQLenPdf::23                       0                       # What read queue length does an incoming req see
system.mem_ctrl.rdQLenPdf::24                       0                       # What read queue length does an incoming req see
system.mem_ctrl.rdQLenPdf::25                       0                       # What read queue length does an incoming req see
system.mem_ctrl.rdQLenPdf::26                       0                       # What read queue length does an incoming req see
system.mem_ctrl.rdQLenPdf::27                       0                       # What read queue length does an incoming req see
system.mem_ctrl.rdQLenPdf::28                       0                       # What read queue length does an incoming req see
system.mem_ctrl.rdQLenPdf::29                       0                       # What read queue length does an incoming req see
system.mem_ctrl.rdQLenPdf::30                       0                       # What read queue length does an incoming req see
system.mem_ctrl.rdQLenPdf::31                       0                       # What read queue length does an incoming req see
system.mem_ctrl.wrQLenPdf::0                        1                       # What write queue length does an incoming req see
system.mem_ctrl.wrQLenPdf::1                        1                       # What write queue length does an incoming req see
system.mem_ctrl.wrQLenPdf::2                        1                       # What write queue length does an incoming req see
system.mem_ctrl.wrQLenPdf::3                        1                       # What write queue length does an incoming req see
system.mem_ctrl.wrQLenPdf::4                        1                       # What write queue length does an incoming req see
system.mem_ctrl.wrQLenPdf::5                        1                       # What write queue length does an incoming req see
system.mem_ctrl.wrQLenPdf::6                        1                       # What write queue length does an incoming req see
system.mem_ctrl.wrQLenPdf::7                        1                       # What write queue length does an incoming req see
system.mem_ctrl.wrQLenPdf::8                        1                       # What write queue length does an incoming req see
system.mem_ctrl.wrQLenPdf::9                        1                       # What write queue length does an incoming req see
system.mem_ctrl.wrQLenPdf::10                       1                       # What write queue length does an incoming req see
system.mem_ctrl.wrQLenPdf::11                       1                       # What write queue length does an incoming req see
system.mem_ctrl.wrQLenPdf::12                       1                       # What write queue length does an incoming req see
system.mem_ctrl.wrQLenPdf::13                       1                       # What write queue length does an incoming req see
system.mem_ctrl.wrQLenPdf::14                       1                       # What write queue length does an incoming req see
system.mem_ctrl.wrQLenPdf::15                       3                       # What write queue length does an incoming req see
system.mem_ctrl.wrQLenPdf::16                       3                       # What write queue length does an incoming req see
system.mem_ctrl.wrQLenPdf::17                   12023                       # What write queue length does an incoming req see
system.mem_ctrl.wrQLenPdf::18                   12022                       # What write queue length does an incoming req see
system.mem_ctrl.wrQLenPdf::19                   12024                       # What write queue length does an incoming req see
system.mem_ctrl.wrQLenPdf::20                   12022                       # What write queue length does an incoming req see
system.mem_ctrl.wrQLenPdf::21                   12022                       # What write queue length does an incoming req see
system.mem_ctrl.wrQLenPdf::22                   12022                       # What write queue length does an incoming req see
system.mem_ctrl.wrQLenPdf::23                   12022                       # What write queue length does an incoming req see
system.mem_ctrl.wrQLenPdf::24                   12022                       # What write queue length does an incoming req see
system.mem_ctrl.wrQLenPdf::25                   12022                       # What write queue length does an incoming req see
system.mem_ctrl.wrQLenPdf::26                   12022                       # What write queue length does an incoming req see
system.mem_ctrl.wrQLenPdf::27                   12022                       # What write queue length does an incoming req see
system.mem_ctrl.wrQLenPdf::28                   12022                       # What write queue length does an incoming req see
system.mem_ctrl.wrQLenPdf::29                   12022                       # What write queue length does an incoming req see
system.mem_ctrl.wrQLenPdf::30                   12022                       # What write queue length does an incoming req see
system.mem_ctrl.wrQLenPdf::31                   12022                       # What write queue length does an incoming req see
system.mem_ctrl.wrQLenPdf::32                   12022                       # What write queue length does an incoming req see
system.mem_ctrl.wrQLenPdf::33                       0                       # What write queue length does an incoming req see
system.mem_ctrl.wrQLenPdf::34                       0                       # What write queue length does an incoming req see
system.mem_ctrl.wrQLenPdf::35                       0                       # What write queue length does an incoming req see
system.mem_ctrl.wrQLenPdf::36                       0                       # What write queue length does an incoming req see
system.mem_ctrl.wrQLenPdf::37                       0                       # What write queue length does an incoming req see
system.mem_ctrl.wrQLenPdf::38                       0                       # What write queue length does an incoming req see
system.mem_ctrl.wrQLenPdf::39                       0                       # What write queue length does an incoming req see
system.mem_ctrl.wrQLenPdf::40                       0                       # What write queue length does an incoming req see
system.mem_ctrl.wrQLenPdf::41                       0                       # What write queue length does an incoming req see
system.mem_ctrl.wrQLenPdf::42                       0                       # What write queue length does an incoming req see
system.mem_ctrl.wrQLenPdf::43                       0                       # What write queue length does an incoming req see
system.mem_ctrl.wrQLenPdf::44                       0                       # What write queue length does an incoming req see
system.mem_ctrl.wrQLenPdf::45                       0                       # What write queue length does an incoming req see
system.mem_ctrl.wrQLenPdf::46                       0                       # What write queue length does an incoming req see
system.mem_ctrl.wrQLenPdf::47                       0                       # What write queue length does an incoming req see
system.mem_ctrl.wrQLenPdf::48                       0                       # What write queue length does an incoming req see
system.mem_ctrl.wrQLenPdf::49                       0                       # What write queue length does an incoming req see
system.mem_ctrl.wrQLenPdf::50                       0                       # What write queue length does an incoming req see
system.mem_ctrl.wrQLenPdf::51                       0                       # What write queue length does an incoming req see
system.mem_ctrl.wrQLenPdf::52                       0                       # What write queue length does an incoming req see
system.mem_ctrl.wrQLenPdf::53                       0                       # What write queue length does an incoming req see
system.mem_ctrl.wrQLenPdf::54                       0                       # What write queue length does an incoming req see
system.mem_ctrl.wrQLenPdf::55                       0                       # What write queue length does an incoming req see
system.mem_ctrl.wrQLenPdf::56                       0                       # What write queue length does an incoming req see
system.mem_ctrl.wrQLenPdf::57                       0                       # What write queue length does an incoming req see
system.mem_ctrl.wrQLenPdf::58                       0                       # What write queue length does an incoming req see
system.mem_ctrl.wrQLenPdf::59                       0                       # What write queue length does an incoming req see
system.mem_ctrl.wrQLenPdf::60                       0                       # What write queue length does an incoming req see
system.mem_ctrl.wrQLenPdf::61                       0                       # What write queue length does an incoming req see
system.mem_ctrl.wrQLenPdf::62                       0                       # What write queue length does an incoming req see
system.mem_ctrl.wrQLenPdf::63                       0                       # What write queue length does an incoming req see
system.mem_ctrl.bytesPerActivate::samples        52946                       # Bytes accessed per row activation
system.mem_ctrl.bytesPerActivate::mean     466.280361                       # Bytes accessed per row activation
system.mem_ctrl.bytesPerActivate::gmean    445.607428                       # Bytes accessed per row activation
system.mem_ctrl.bytesPerActivate::stdev    106.692035                       # Bytes accessed per row activation
system.mem_ctrl.bytesPerActivate::0-127           129      0.24%      0.24% # Bytes accessed per row activation
system.mem_ctrl.bytesPerActivate::128-255         2378      4.49%      4.74% # Bytes accessed per row activation
system.mem_ctrl.bytesPerActivate::256-383         4559      8.61%     13.35% # Bytes accessed per row activation
system.mem_ctrl.bytesPerActivate::384-511         2328      4.40%     17.74% # Bytes accessed per row activation
system.mem_ctrl.bytesPerActivate::512-639        43526     82.21%     99.95% # Bytes accessed per row activation
system.mem_ctrl.bytesPerActivate::640-767           10      0.02%     99.97% # Bytes accessed per row activation
system.mem_ctrl.bytesPerActivate::768-895            5      0.01%     99.98% # Bytes accessed per row activation
system.mem_ctrl.bytesPerActivate::896-1023            5      0.01%     99.99% # Bytes accessed per row activation
system.mem_ctrl.bytesPerActivate::1024-1151            6      0.01%    100.00% # Bytes accessed per row activation
system.mem_ctrl.bytesPerActivate::total         52946                       # Bytes accessed per row activation
system.mem_ctrl.rdPerTurnAround::samples        12022                       # Reads before turning the bus around for writes
system.mem_ctrl.rdPerTurnAround::mean       16.089835                       # Reads before turning the bus around for writes
system.mem_ctrl.rdPerTurnAround::gmean      16.006094                       # Reads before turning the bus around for writes
system.mem_ctrl.rdPerTurnAround::stdev       9.795297                       # Reads before turning the bus around for writes
system.mem_ctrl.rdPerTurnAround::0-63           12021     99.99%     99.99% # Reads before turning the bus around for writes
system.mem_ctrl.rdPerTurnAround::1088-1151            1      0.01%    100.00% # Reads before turning the bus around for writes
system.mem_ctrl.rdPerTurnAround::total          12022                       # Reads before turning the bus around for writes
system.mem_ctrl.wrPerTurnAround::samples        12022                       # Writes before turning the bus around for reads
system.mem_ctrl.wrPerTurnAround::mean       16.000499                       # Writes before turning the bus around for reads
system.mem_ctrl.wrPerTurnAround::gmean      16.000457                       # Writes before turning the bus around for reads
system.mem_ctrl.wrPerTurnAround::stdev       0.038693                       # Writes before turning the bus around for reads
system.mem_ctrl.wrPerTurnAround::16             12020     99.98%     99.98% # Writes before turning the bus around for reads
system.mem_ctrl.wrPerTurnAround::19                 2      0.02%    100.00% # Writes before turning the bus around for reads
system.mem_ctrl.wrPerTurnAround::total          12022                       # Writes before turning the bus around for reads
system.mem_ctrl.bytesReadDRAM                12379712                       # Total number of bytes read from DRAM
system.mem_ctrl.bytesReadWrQ                        0                       # Total number of bytes read from write queue
system.mem_ctrl.bytesWritten                 12310912                       # Total number of bytes written to DRAM
system.mem_ctrl.bytesReadSys                 12379712                       # Total read bytes from the system interface side
system.mem_ctrl.bytesWrittenSys              12312064                       # Total written bytes from the system interface side
system.mem_ctrl.avgRdBW                        686.10                       # Average DRAM read bandwidth in MiByte/s
system.mem_ctrl.avgWrBW                        682.29                       # Average achieved write bandwidth in MiByte/s
system.mem_ctrl.avgRdBWSys                     686.10                       # Average system read bandwidth in MiByte/s
system.mem_ctrl.avgWrBWSys                     682.35                       # Average system write bandwidth in MiByte/s
system.mem_ctrl.peakBW                       12800.00                       # Theoretical peak bandwidth in MiByte/s
system.mem_ctrl.busUtil                         10.69                       # Data bus utilization in percentage
system.mem_ctrl.busUtilRead                      5.36                       # Data bus utilization in percentage for reads
system.mem_ctrl.busUtilWrite                     5.33                       # Data bus utilization in percentage for writes
system.mem_ctrl.totGap                    18043521000                       # Total gap between requests
system.mem_ctrl.avgGap                       46768.01                       # Average gap between requests
system.mem_ctrl.masterReadBytes::.cpu.inst        41344                       # Per-master bytes read from memory
system.mem_ctrl.masterReadBytes::.cpu.data     12338368                       # Per-master bytes read from memory
system.mem_ctrl.masterWriteBytes::.writebacks     12310912                       # Per-master bytes write to memory
system.mem_ctrl.masterReadRate::.cpu.inst 2291343.201856174041                       # Per-master bytes read from memory rate (Bytes/sec)
system.mem_ctrl.masterReadRate::.cpu.data 683809879.034436941147                       # Per-master bytes read from memory rate (Bytes/sec)
system.mem_ctrl.masterWriteRate::.writebacks 682288228.518033981323                       # Per-master bytes write to memory rate (Bytes/sec)
system.mem_ctrl.masterReadAccesses::.cpu.inst          646                       # Per-master read serviced memory accesses
system.mem_ctrl.masterReadAccesses::.cpu.data       192787                       # Per-master read serviced memory accesses
system.mem_ctrl.masterWriteAccesses::.writebacks       192376                       # Per-master write serviced memory accesses
system.mem_ctrl.masterReadTotalLat::.cpu.inst     16579000                       # Per-master read total memory access latency
system.mem_ctrl.masterReadTotalLat::.cpu.data   5379108000                       # Per-master read total memory access latency
system.mem_ctrl.masterWriteTotalLat::.writebacks 442467571250                       # Per-master write total memory access latency
system.mem_ctrl.masterReadAvgLat::.cpu.inst     25664.09                       # Per-master read average memory access latency
system.mem_ctrl.masterReadAvgLat::.cpu.data     27901.82                       # Per-master read average memory access latency
system.mem_ctrl.masterWriteAvgLat::.writebacks   2300014.41                       # Per-master write average memory access latency
system.mem_ctrl.pageHitRate                     86.27                       # Row buffer hit rate, read and write combined
system.mem_ctrl.rank1.actEnergy             189060060                       # Energy for activate commands per rank (pJ)
system.mem_ctrl.rank1.preEnergy             100461240                       # Energy for precharge commands per rank (pJ)
system.mem_ctrl.rank1.readEnergy            690316620                       # Energy for read commands per rank (pJ)
system.mem_ctrl.rank1.writeEnergy           502080480                       # Energy for write commands per rank (pJ)
system.mem_ctrl.rank1.refreshEnergy      1424120880.000000                       # Energy for refresh commands per rank (pJ)
system.mem_ctrl.rank1.actBackEnergy        7535368650                       # Energy for active background per rank (pJ)
system.mem_ctrl.rank1.preBackEnergy         583155360                       # Energy for precharge background per rank (pJ)
system.mem_ctrl.rank1.actPowerDownEnergy            0                       # Energy for active power-down per rank (pJ)
system.mem_ctrl.rank1.prePowerDownEnergy            0                       # Energy for precharge power-down per rank (pJ)
system.mem_ctrl.rank1.selfRefreshEnergy             0                       # Energy for self refresh per rank (pJ)
system.mem_ctrl.rank1.totalEnergy         11024563290                       # Total energy per rank (pJ)
system.mem_ctrl.rank1.averagePower         610.996956                       # Core power per rank (mW)
system.mem_ctrl.rank1.totalIdleTime                 0                       # Total Idle time Per DRAM Rank
system.mem_ctrl.rank1.memoryStateTime::IDLE   1454445250                       # Time in different power states
system.mem_ctrl.rank1.memoryStateTime::REF    602420000                       # Time in different power states
system.mem_ctrl.rank1.memoryStateTime::SREF            0                       # Time in different power states
system.mem_ctrl.rank1.memoryStateTime::PRE_PDN            0                       # Time in different power states
system.mem_ctrl.rank1.memoryStateTime::ACT  15986699750                       # Time in different power states
system.mem_ctrl.rank1.memoryStateTime::ACT_PDN            0                       # Time in different power states
system.mem_ctrl.rank0.actEnergy             189024360                       # Energy for activate commands per rank (pJ)
system.mem_ctrl.rank0.preEnergy             100468830                       # Energy for precharge commands per rank (pJ)
system.mem_ctrl.rank0.readEnergy            690795000                       # Energy for read commands per rank (pJ)
system.mem_ctrl.rank0.writeEnergy           502028280                       # Energy for write commands per rank (pJ)
system.mem_ctrl.rank0.refreshEnergy      1424120880.000000                       # Energy for refresh commands per rank (pJ)
system.mem_ctrl.rank0.actBackEnergy        7525970490                       # Energy for active background per rank (pJ)
system.mem_ctrl.rank0.preBackEnergy         591069600                       # Energy for precharge background per rank (pJ)
system.mem_ctrl.rank0.actPowerDownEnergy            0                       # Energy for active power-down per rank (pJ)
system.mem_ctrl.rank0.prePowerDownEnergy            0                       # Energy for precharge power-down per rank (pJ)
system.mem_ctrl.rank0.selfRefreshEnergy             0                       # Energy for self refresh per rank (pJ)
system.mem_ctrl.rank0.totalEnergy         11023477440                       # Total energy per rank (pJ)
system.mem_ctrl.rank0.averagePower         610.936777                       # Core power per rank (mW)
system.mem_ctrl.rank0.totalIdleTime                 0                       # Total Idle time Per DRAM Rank
system.mem_ctrl.rank0.memoryStateTime::IDLE   1475051250                       # Time in different power states
system.mem_ctrl.rank0.memoryStateTime::REF    602420000                       # Time in different power states
system.mem_ctrl.rank0.memoryStateTime::SREF            0                       # Time in different power states
system.mem_ctrl.rank0.memoryStateTime::PRE_PDN            0                       # Time in different power states
system.mem_ctrl.rank0.memoryStateTime::ACT  15966093750                       # Time in different power states
system.mem_ctrl.rank0.memoryStateTime::ACT_PDN            0                       # Time in different power states
system.mem_ctrl.power_state.pwrStateResidencyTicks::UNDEFINED  18043565000                       # Cumulative time (in ticks) in various power states
system.cache_medium.blocked_cycles::no_mshrs            0                       # number of cycles access was blocked
system.cache_medium.blocked_cycles::no_targets            0                       # number of cycles access was blocked
system.cache_medium.blocked::no_mshrs               0                       # number of cycles access was blocked
system.cache_medium.blocked::no_targets             0                       # number of cycles access was blocked
system.cache_medium.avg_blocked_cycles::no_mshrs          nan                       # average number of cycles each access was blocked
system.cache_medium.avg_blocked_cycles::no_targets          nan                       # average number of cycles each access was blocked
system.cache_medium.replacements                    0                       # number of replacements
system.cache_medium.power_state.pwrStateResidencyTicks::UNDEFINED  18043565000                       # Cumulative time (in ticks) in various power states
system.cache_medium.tags.tagsinuse                  0                       # Cycle average of tags in use
system.cache_medium.tags.total_refs                 0                       # Total number of references to valid blocks.
system.cache_medium.tags.sampled_refs               0                       # Sample count of references to valid blocks.
system.cache_medium.tags.avg_refs                 nan                       # Average number of references to valid blocks.
system.cache_medium.tags.warmup_cycle               0                       # Cycle when the warmup percentage was hit.
system.cache_medium.tags.tag_accesses               0                       # Number of tag accesses
system.cache_medium.tags.data_accesses              0                       # Number of data accesses
system.cache_medium.tags.power_state.pwrStateResidencyTicks::UNDEFINED  18043565000                       # Cumulative time (in ticks) in various power states
system.clk_domain.clock                          1000                       # Clock period in ticks
system.clk_domain.voltage_domain.voltage            1                       # Voltage in Volts
system.dcache.demand_hits::.cpu.data           206089                       # number of demand (read+write) hits
system.dcache.demand_hits::total               206089                       # number of demand (read+write) hits
system.dcache.overall_hits::.cpu.data          206091                       # number of overall hits
system.dcache.overall_hits::total              206091                       # number of overall hits
system.dcache.demand_misses::.cpu.data         192914                       # number of demand (read+write) misses
system.dcache.demand_misses::total             192914                       # number of demand (read+write) misses
system.dcache.overall_misses::.cpu.data        192914                       # number of overall misses
system.dcache.overall_misses::total            192914                       # number of overall misses
system.dcache.demand_miss_latency::.cpu.data  15076728000                       # number of demand (read+write) miss cycles
system.dcache.demand_miss_latency::total  15076728000                       # number of demand (read+write) miss cycles
system.dcache.overall_miss_latency::.cpu.data  15076728000                       # number of overall miss cycles
system.dcache.overall_miss_latency::total  15076728000                       # number of overall miss cycles
system.dcache.demand_accesses::.cpu.data       399003                       # number of demand (read+write) accesses
system.dcache.demand_accesses::total           399003                       # number of demand (read+write) accesses
system.dcache.overall_accesses::.cpu.data       399005                       # number of overall (read+write) accesses
system.dcache.overall_accesses::total          399005                       # number of overall (read+write) accesses
system.dcache.demand_miss_rate::.cpu.data     0.483490                       # miss rate for demand accesses
system.dcache.demand_miss_rate::total        0.483490                       # miss rate for demand accesses
system.dcache.overall_miss_rate::.cpu.data     0.483488                       # miss rate for overall accesses
system.dcache.overall_miss_rate::total       0.483488                       # miss rate for overall accesses
system.dcache.demand_avg_miss_latency::.cpu.data 78152.586126                       # average overall miss latency
system.dcache.demand_avg_miss_latency::total 78152.586126                       # average overall miss latency
system.dcache.overall_avg_miss_latency::.cpu.data 78152.586126                       # average overall miss latency
system.dcache.overall_avg_miss_latency::total 78152.586126                       # average overall miss latency
system.dcache.blocked_cycles::no_mshrs              0                       # number of cycles access was blocked
system.dcache.blocked_cycles::no_targets            0                       # number of cycles access was blocked
system.dcache.blocked::no_mshrs                     0                       # number of cycles access was blocked
system.dcache.blocked::no_targets                   0                       # number of cycles access was blocked
system.dcache.avg_blocked_cycles::no_mshrs          nan                       # average number of cycles each access was blocked
system.dcache.avg_blocked_cycles::no_targets          nan                       # average number of cycles each access was blocked
system.dcache.writebacks::.writebacks          192632                       # number of writebacks
system.dcache.writebacks::total                192632                       # number of writebacks
system.dcache.demand_mshr_misses::.cpu.data       192914                       # number of demand (read+write) MSHR misses
system.dcache.demand_mshr_misses::total        192914                       # number of demand (read+write) MSHR misses
system.dcache.overall_mshr_misses::.cpu.data       192914                       # number of overall MSHR misses
system.dcache.overall_mshr_misses::total       192914                       # number of overall MSHR misses
system.dcache.demand_mshr_miss_latency::.cpu.data  14690902000                       # number of demand (read+write) MSHR miss cycles
system.dcache.demand_mshr_miss_latency::total  14690902000                       # number of demand (read+write) MSHR miss cycles
system.dcache.overall_mshr_miss_latency::.cpu.data  14690902000                       # number of overall MSHR miss cycles
system.dcache.overall_mshr_miss_latency::total  14690902000                       # number of overall MSHR miss cycles
system.dcache.demand_mshr_miss_rate::.cpu.data     0.483490                       # mshr miss rate for demand accesses
system.dcache.demand_mshr_miss_rate::total     0.483490                       # mshr miss rate for demand accesses
system.dcache.overall_mshr_miss_rate::.cpu.data     0.483488                       # mshr miss rate for overall accesses
[...]
system.dcache.tags.occ_percent::total        0.726327                       # Average percentage of cache occupancy
system.dcache.tags.occ_task_id_blocks::1024          186                       # Occupied blocks per task id
system.dcache.tags.age_task_id_blocks_1024::0           16                       # Occupied blocks per task id
system.dcache.tags.age_task_id_blocks_1024::4          170                       # Occupied blocks per task id
system.dcache.tags.occ_task_id_percent::1024     0.726562                       # Percentage of cache occupancy per task id
system.dcache.tags.tag_accesses               4191916                       # Number of tag accesses
system.dcache.tags.data_accesses              4191916                       # Number of data accesses
system.dcache.tags.power_state.pwrStateResidencyTicks::UNDEFINED 129275793000                       # Cumulative time (in ticks) in various power states
system.cache_large.blocked_cycles::no_mshrs            0                       # number of cycles access was blocked
system.cache_large.blocked_cycles::no_targets            0                       # number of cycles access was blocked
system.cache_large.blocked::no_mshrs                0                       # number of cycles access was blocked
system.cache_large.blocked::no_targets              0                       # number of cycles access was blocked
system.cache_large.avg_blocked_cycles::no_mshrs          nan                       # average number of cycles each access was blocked
system.cache_large.avg_blocked_cycles::no_targets          nan                       # average number of cycles each access was blocked
system.cache_large.replacements                     0                       # number of replacements
system.cache_large.power_state.pwrStateResidencyTicks::UNDEFINED 129275793000                       # Cumulative time (in ticks) in various power states
system.cache_large.tags.tagsinuse                   0                       # Cycle average of tags in use
system.cache_large.tags.total_refs                  0                       # Total number of references to valid blocks.
system.cache_large.tags.sampled_refs                0                       # Sample count of references to valid blocks.
system.cache_large.tags.avg_refs                  nan                       # Average number of references to valid blocks.
system.cache_large.tags.warmup_cycle                0                       # Cycle when the warmup percentage was hit.
system.cache_large.tags.tag_accesses                0                       # Number of tag accesses
system.cache_large.tags.data_accesses               0                       # Number of data accesses
system.cache_large.tags.power_state.pwrStateResidencyTicks::UNDEFINED 129275793000                       # Cumulative time (in ticks) in various power states
system.l2cache.demand_hits::.cpu.inst              42                       # number of demand (read+write) hits
system.l2cache.demand_hits::.cpu.data             116                       # number of demand (read+write) hits
system.l2cache.demand_hits::total                 158                       # number of demand (read+write) hits
system.l2cache.overall_hits::.cpu.inst             42                       # number of overall hits
system.l2cache.overall_hits::.cpu.data            116                       # number of overall hits
system.l2cache.overall_hits::total                158                       # number of overall hits
system.l2cache.demand_misses::.cpu.inst           715                       # number of demand (read+write) misses
system.l2cache.demand_misses::.cpu.data       1392797                       # number of demand (read+write) misses
system.l2cache.demand_misses::total           1393512                       # number of demand (read+write) misses
system.l2cache.overall_misses::.cpu.inst          715                       # number of overall misses
system.l2cache.overall_misses::.cpu.data      1392797                       # number of overall misses
system.l2cache.overall_misses::total          1393512                       # number of overall misses
system.l2cache.demand_miss_latency::.cpu.inst     46116000                       # number of demand (read+write) miss cycles
system.l2cache.demand_miss_latency::.cpu.data 100550444000                       # number of demand (read+write) miss cycles
system.l2cache.demand_miss_latency::total 100596560000                       # number of demand (read+write) miss cycles
system.l2cache.overall_miss_latency::.cpu.inst     46116000                       # number of overall miss cycles
system.l2cache.overall_miss_latency::.cpu.data 100550444000                       # number of overall miss cycles
system.l2cache.overall_miss_latency::total 100596560000                       # number of overall miss cycles
system.l2cache.demand_accesses::.cpu.inst          757                       # number of demand (read+write) accesses
system.l2cache.demand_accesses::.cpu.data      1392913                       # number of demand (read+write) accesses
system.l2cache.demand_accesses::total         1393670                       # number of demand (read+write) accesses
system.l2cache.overall_accesses::.cpu.inst          757                       # number of overall (read+write) accesses
system.l2cache.overall_accesses::.cpu.data      1392913                       # number of overall (read+write) accesses
system.l2cache.overall_accesses::total        1393670                       # number of overall (read+write) accesses
system.l2cache.demand_miss_rate::.cpu.inst     0.944518                       # miss rate for demand accesses
system.l2cache.demand_miss_rate::.cpu.data     0.999917                       # miss rate for demand accesses
system.l2cache.demand_miss_rate::total       0.999887                       # miss rate for demand accesses
system.l2cache.overall_miss_rate::.cpu.inst     0.944518                       # miss rate for overall accesses
system.l2cache.overall_miss_rate::.cpu.data     0.999917                       # miss rate for overall accesses
system.l2cache.overall_miss_rate::total      0.999887                       # miss rate for overall accesses
system.l2cache.demand_avg_miss_latency::.cpu.inst 64497.902098                       # average overall miss latency
system.l2cache.demand_avg_miss_latency::.cpu.data 72193.179623                       # average overall miss latency
system.l2cache.demand_avg_miss_latency::total 72189.231237                       # average overall miss latency
system.l2cache.overall_avg_miss_latency::.cpu.inst 64497.902098                       # average overall miss latency
system.l2cache.overall_avg_miss_latency::.cpu.data 72193.179623                       # average overall miss latency
system.l2cache.overall_avg_miss_latency::total 72189.231237                       # average overall miss latency
system.l2cache.blocked_cycles::no_mshrs             0                       # number of cycles access was blocked
system.l2cache.blocked_cycles::no_targets            0                       # number of cycles access was blocked
system.l2cache.blocked::no_mshrs                    0                       # number of cycles access was blocked
system.l2cache.blocked::no_targets                  0                       # number of cycles access was blocked
system.l2cache.avg_blocked_cycles::no_mshrs          nan                       # average number of cycles each access was blocked
system.l2cache.avg_blocked_cycles::no_targets          nan                       # average number of cycles each access was blocked
system.l2cache.writebacks::.writebacks        1392515                       # number of writebacks
system.l2cache.writebacks::total              1392515                       # number of writebacks
system.l2cache.demand_mshr_misses::.cpu.inst          715                       # number of demand (read+write) MSHR misses
system.l2cache.demand_mshr_misses::.cpu.data      1392797                       # number of demand (read+write) MSHR misses
system.l2cache.demand_mshr_misses::total      1393512                       # number of demand (read+write) MSHR misses
system.l2cache.overall_mshr_misses::.cpu.inst          715                       # number of overall MSHR misses
system.l2cache.overall_mshr_misses::.cpu.data      1392797                       # number of overall MSHR misses
system.l2cache.overall_mshr_misses::total      1393512                       # number of overall MSHR misses
system.l2cache.demand_mshr_miss_latency::.cpu.inst     44686000                       # number of demand (read+write) MSHR miss cycles
system.l2cache.demand_mshr_miss_latency::.cpu.data  97764850000                       # number of demand (read+write) MSHR miss cycles
system.l2cache.demand_mshr_miss_latency::total  97809536000                       # number of demand (read+write) MSHR miss cycles
system.l2cache.overall_mshr_miss_latency::.cpu.inst     44686000                       # number of overall MSHR miss cycles
system.l2cache.overall_mshr_miss_latency::.cpu.data  97764850000                       # number of overall MSHR miss cycles
system.l2cache.overall_mshr_miss_latency::total  97809536000                       # number of overall MSHR miss cycles
system.l2cache.demand_mshr_miss_rate::.cpu.inst     0.944518                       # mshr miss rate for demand accesses
system.l2cache.demand_mshr_miss_rate::.cpu.data     0.999917                       # mshr miss rate for demand accesses
system.l2cache.demand_mshr_miss_rate::total     0.999887                       # mshr miss rate for demand accesses
system.l2cache.overall_mshr_miss_rate::.cpu.inst     0.944518                       # mshr miss rate for overall accesses
system.l2cache.overall_mshr_miss_rate::.cpu.data     0.999917                       # mshr miss rate for overall accesses
system.l2cache.overall_mshr_miss_rate::total     0.999887                       # mshr miss rate for overall accesses
system.l2cache.demand_avg_mshr_miss_latency::.cpu.inst 62497.902098                       # average overall mshr miss latency
system.l2cache.demand_avg_mshr_miss_latency::.cpu.data 70193.179623                       # average overall mshr miss latency
system.l2cache.demand_avg_mshr_miss_latency::total 70189.231237                       # average overall mshr miss latency
system.l2cache.overall_avg_mshr_miss_latency::.cpu.inst 62497.902098                       # average overall mshr miss latency
system.l2cache.overall_avg_mshr_miss_latency::.cpu.data 70193.179623                       # average overall mshr miss latency
system.l2cache.overall_avg_mshr_miss_latency::total 70189.231237                       # average overall mshr miss latency
system.l2cache.replacements                   1393124                       # number of replacements
system.l2cache.ReadReq_hits::.cpu.inst             42                       # number of ReadReq hits
system.l2cache.ReadReq_hits::.cpu.data            116                       # number of ReadReq hits
system.l2cache.ReadReq_hits::total                158                       # number of ReadReq hits
system.l2cache.ReadReq_misses::.cpu.inst          715                       # number of ReadReq misses
system.l2cache.ReadReq_misses::.cpu.data      1392797                       # number of ReadReq misses
system.l2cache.ReadReq_misses::total          1393512                       # number of ReadReq misses
system.l2cache.ReadReq_miss_latency::.cpu.inst     46116000                       # number of ReadReq miss cycles
system.l2cache.ReadReq_miss_latency::.cpu.data 100550444000                       # number of ReadReq miss cycles
system.l2cache.ReadReq_miss_latency::total 100596560000                       # number of ReadReq miss cycles
system.l2cache.ReadReq_accesses::.cpu.inst          757                       # number of ReadReq accesses(hits+misses)
system.l2cache.ReadReq_accesses::.cpu.data      1392913                       # number of ReadReq accesses(hits+misses)
system.l2cache.ReadReq_accesses::total        1393670                       # number of ReadReq accesses(hits+misses)
system.l2cache.ReadReq_miss_rate::.cpu.inst     0.944518                       # miss rate for ReadReq accesses
system.l2cache.ReadReq_miss_rate::.cpu.data     0.999917                       # miss rate for ReadReq accesses
system.l2cache.ReadReq_miss_rate::total      0.999887                       # miss rate for ReadReq accesses
system.l2cache.ReadReq_avg_miss_latency::.cpu.inst 64497.902098                       # average ReadReq miss latency
system.l2cache.ReadReq_avg_miss_latency::.cpu.data 72193.179623                       # average ReadReq miss latency
system.l2cache.ReadReq_avg_miss_latency::total 72189.231237                       # average ReadReq miss latency
system.l2cache.ReadReq_mshr_misses::.cpu.inst          715                       # number of ReadReq MSHR misses
system.l2cache.ReadReq_mshr_misses::.cpu.data      1392797                       # number of ReadReq MSHR misses
system.l2cache.ReadReq_mshr_misses::total      1393512                       # number of ReadReq MSHR misses
system.l2cache.ReadReq_mshr_miss_latency::.cpu.inst     44686000                       # number of ReadReq MSHR miss cycles
system.l2cache.ReadReq_mshr_miss_latency::.cpu.data  97764850000                       # number of ReadReq MSHR miss cycles
system.l2cache.ReadReq_mshr_miss_latency::total  97809536000                       # number of ReadReq MSHR miss cycles
system.l2cache.ReadReq_mshr_miss_rate::.cpu.inst     0.944518                       # mshr miss rate for ReadReq accesses
system.l2cache.ReadReq_mshr_miss_rate::.cpu.data     0.999917                       # mshr miss rate for ReadReq accesses
system.l2cache.ReadReq_mshr_miss_rate::total     0.999887                       # mshr miss rate for ReadReq accesses
system.l2cache.ReadReq_avg_mshr_miss_latency::.cpu.inst 62497.902098                       # average ReadReq mshr miss latency
system.l2cache.ReadReq_avg_mshr_miss_latency::.cpu.data 70193.179623                       # average ReadReq mshr miss latency
system.l2cache.ReadReq_avg_mshr_miss_latency::total 70189.231237                       # average ReadReq mshr miss latency
system.l2cache.WritebackDirty_hits::.writebacks      1392632                       # number of WritebackDirty hits
system.l2cache.WritebackDirty_hits::total      1392632                       # number of WritebackDirty hits
system.l2cache.WritebackDirty_accesses::.writebacks      1392632                       # number of WritebackDirty accesses(hits+misses)
system.l2cache.WritebackDirty_accesses::total      1392632                       # number of WritebackDirty accesses(hits+misses)
system.l2cache.power_state.pwrStateResidencyTicks::UNDEFINED 129275793000                       # Cumulative time (in ticks) in various power states
system.l2cache.tags.tagsinuse              442.841708                       # Cycle average of tags in use
system.l2cache.tags.total_refs                2786302                       # Total number of references to valid blocks.
system.l2cache.tags.sampled_refs              1393567                       # Sample count of references to valid blocks.
system.l2cache.tags.avg_refs                 1.999403                       # Average number of references to valid blocks.
system.l2cache.tags.warmup_cycle                78000                       # Cycle when the warmup percentage was hit.
system.l2cache.tags.occ_blocks::.writebacks    19.991645                       # Average occupied blocks per requestor
system.l2cache.tags.occ_blocks::.cpu.inst   271.887734                       # Average occupied blocks per requestor
system.l2cache.tags.occ_blocks::.cpu.data   150.962329                       # Average occupied blocks per requestor
system.l2cache.tags.occ_percent::.writebacks     0.039046                       # Average percentage of cache occupancy
system.l2cache.tags.occ_percent::.cpu.inst     0.531031                       # Average percentage of cache occupancy
system.l2cache.tags.occ_percent::.cpu.data     0.294848                       # Average percentage of cache occupancy
system.l2cache.tags.occ_percent::total       0.864925                       # Average percentage of cache occupancy
system.l2cache.tags.occ_task_id_blocks::1024          443                       # Occupied blocks per task id
system.l2cache.tags.age_task_id_blocks_1024::0           32                       # Occupied blocks per task id
system.l2cache.tags.age_task_id_blocks_1024::4          411                       # Occupied blocks per task id
system.l2cache.tags.occ_task_id_percent::1024     0.865234                       # Percentage of cache occupancy per task id
system.l2cache.tags.tag_accesses              4179869                       # Number of tag accesses
system.l2cache.tags.data_accesses             4179869                       # Number of data accesses
system.l2cache.tags.power_state.pwrStateResidencyTicks::UNDEFINED 129275793000                       # Cumulative time (in ticks) in various power states
system.l2bar.trans_dist::ReadReq              1393670                       # Transaction distribution
system.l2bar.trans_dist::ReadResp             1393670                       # Transaction distribution
system.l2bar.trans_dist::WritebackDirty       1392632                       # Transaction distribution
system.l2bar.pkt_count_system.dcache.mem_side::system.l2cache.cpu_side      4178458                       # Packet count per connected master and slave (bytes)
system.l2bar.pkt_count_system.icache.mem_side::system.l2cache.cpu_side         1514                       # Packet count per connected master and slave (bytes)
system.l2bar.pkt_count::total                 4179972                       # Packet count per connected master and slave (bytes)
system.l2bar.pkt_size_system.dcache.mem_side::system.l2cache.cpu_side    178274880                       # Cumulative packet size per connected master and slave (bytes)
system.l2bar.pkt_size_system.icache.mem_side::system.l2cache.cpu_side        48448                       # Cumulative packet size per connected master and slave (bytes)
system.l2bar.pkt_size::total                178323328                       # Cumulative packet size per connected master and slave (bytes)
system.l2bar.respLayer1.occupancy             3785000                       # Layer occupancy (ticks)
system.l2bar.respLayer1.utilization               0.0                       # Layer utilization (%)
system.l2bar.reqLayer0.occupancy           8356830000                       # Layer occupancy (ticks)
system.l2bar.reqLayer0.utilization                6.5                       # Layer utilization (%)
system.l2bar.respLayer0.occupancy          6964565000                       # Layer occupancy (ticks)
system.l2bar.respLayer0.utilization               5.4                       # Layer utilization (%)
system.l2bar.power_state.pwrStateResidencyTicks::UNDEFINED 129275793000                       # Cumulative time (in ticks) in various power states
system.cpu.dtb.walker.power_state.pwrStateResidencyTicks::UNDEFINED 129275793000                       # Cumulative time (in ticks) in various power states
system.cpu.interrupts.clk_domain.clock          16000                       # Clock period in ticks
system.cpu.itb.walker.power_state.pwrStateResidencyTicks::UNDEFINED 129275793000                       # Cumulative time (in ticks) in various power states
system.cpu.power_state.numTransitions               1                       # Number of power state transitions
system.cpu.power_state.pwrStateResidencyTicks::ON 129275793000                       # Cumulative time (in ticks) in various power states

---------- End Simulation Statistics   ----------
