
---------- Begin Simulation Statistics ----------
final_tick                                 4317328000                       # Number of ticks from beginning of simulation (restored from checkpoints and never reset)
host_inst_rate                                  88296                       # Simulator instruction rate (inst/s)
host_mem_usage                               34209432                       # Number of bytes of host memory used
host_op_rate                                   172799                       # Simulator op (including micro ops) rate (op/s)
host_seconds                                    11.33                       # Real time elapsed on the host
host_tick_rate                              381175962                       # Simulator tick rate (ticks/s)
sim_freq                                 1000000000000                       # Frequency of simulated ticks
sim_insts                                     1000041                       # Number of instructions simulated
sim_ops                                       1957173                       # Number of ops (including micro ops) simulated
sim_seconds                                  0.004317                       # Number of seconds simulated
sim_ticks                                  4317328000                       # Number of ticks simulated
system.cpu.Branches                            218832                       # Number of branches fetched
system.cpu.committedInsts                     1000041                       # Number of instructions committed
system.cpu.committedOps                       1957173                       # Number of ops (including micro ops) committed
system.cpu.dtb.rdAccesses                      183764                       # TLB accesses on read requests
system.cpu.dtb.rdMisses                            35                       # TLB misses on read requests
system.cpu.dtb.wrAccesses                      130578                       # TLB accesses on write requests
system.cpu.dtb.wrMisses                            92                       # TLB misses on write requests
system.cpu.idle_fraction                            0                       # Percentage of idle cycles
system.cpu.itb.rdAccesses                           0                       # TLB accesses on read requests
system.cpu.itb.rdMisses                             0                       # TLB misses on read requests
system.cpu.itb.wrAccesses                     1330451                       # TLB accesses on write requests
system.cpu.itb.wrMisses                            90                       # TLB misses on write requests
system.cpu.not_idle_fraction                        1                       # Percentage of non-idle cycles
system.cpu.numCycles                          4317317                       # number of cpu cycles simulated
system.cpu.numWorkItemsCompleted                    0                       # number of work items this cpu completed
system.cpu.numWorkItemsStarted                      0                       # number of work items this cpu started
system.cpu.num_busy_cycles                    4317317                       # Number of busy cycles
system.cpu.num_cc_register_reads              1243301                       # number of times the CC registers were read
system.cpu.num_cc_register_writes              640869                       # number of times the CC registers were written
system.cpu.num_conditional_control_insts       167677                       # number of instructions that are conditional controls
system.cpu.num_fp_alu_accesses                  84073                       # Number of float alu accesses
system.cpu.num_fp_insts                         84073                       # number of float instructions
system.cpu.num_fp_register_reads               125484                       # number of times the floating registers were read
system.cpu.num_fp_register_writes               65675                       # number of times the floating registers were written
system.cpu.num_func_calls                       28322                       # number of times a function call or return occured
system.cpu.num_idle_cycles                          0                       # Number of idle cycles
system.cpu.num_int_alu_accesses               1896360                       # Number of integer alu accesses
system.cpu.num_int_insts                      1896360                       # number of integer instructions
system.cpu.num_int_register_reads             3666847                       # number of times the integer registers were read
system.cpu.num_int_register_writes            1559968                       # number of times the integer registers were written
system.cpu.num_load_insts                      182951                       # Number of load instructions
system.cpu.num_mem_refs                        313420                       # number of memory refs
system.cpu.num_store_insts                     130469                       # Number of store instructions
system.cpu.num_vec_alu_accesses                     0                       # Number of vector alu accesses
system.cpu.num_vec_insts                            0                       # number of vector instructions
system.cpu.num_vec_register_reads                   0                       # number of times the vector registers were read
system.cpu.num_vec_register_writes                  0                       # number of times the vector registers were written
system.cpu.op_class::No_OpClass                 15395      0.79%      0.79% # Class of executed instruction
system.cpu.op_class::IntAlu                   1556205     79.51%     80.30% # Class of executed instruction
system.cpu.op_class::IntMult                     1608      0.08%     80.38% # Class of executed instruction
system.cpu.op_class::IntDiv                     12878      0.66%     81.04% # Class of executed instruction
system.cpu.op_class::FloatAdd                    1125      0.06%     81.10% # Class of executed instruction
system.cpu.op_class::FloatCmp                       0      0.00%     81.10% # Class of executed instruction
system.cpu.op_class::FloatCvt                       0      0.00%     81.10% # Class of executed instruction
system.cpu.op_class::FloatMult                      0      0.00%     81.10% # Class of executed instruction
system.cpu.op_class::FloatMultAcc                   0      0.00%     81.10% # Class of executed instruction
system.cpu.op_class::FloatDiv                       0      0.00%     81.10% # Class of executed instruction
system.cpu.op_class::FloatMisc                      0      0.00%     81.10% # Class of executed instruction
system.cpu.op_class::FloatSqrt                      0      0.00%     81.10% # Class of executed instruction
system.cpu.op_class::SimdAdd                      506      0.03%     81.12% # Class of executed instruction
system.cpu.op_class::SimdAddAcc                     0      0.00%     81.12% # Class of executed instruction
system.cpu.op_class::SimdAlu                    16689      0.85%     81.98% # Class of executed instruction
system.cpu.op_class::SimdCmp                        0      0.00%     81.98% # Class of executed instruction
system.cpu.op_class::SimdCvt                    13400      0.68%     82.66% # Class of executed instruction
system.cpu.op_class::SimdMisc                   15720      0.80%     83.46% # Class of executed instruction
system.cpu.op_class::SimdMult                       0      0.00%     83.46% # Class of executed instruction
system.cpu.op_class::SimdMultAcc                    0      0.00%     83.46% # Class of executed instruction
system.cpu.op_class::SimdShift                    827      0.04%     83.51% # Class of executed instruction
system.cpu.op_class::SimdShiftAcc                   0      0.00%     83.51% # Class of executed instruction
system.cpu.op_class::SimdDiv                        0      0.00%     83.51% # Class of executed instruction
system.cpu.op_class::SimdSqrt                       0      0.00%     83.51% # Class of executed instruction
system.cpu.op_class::SimdFloatAdd                4280      0.22%     83.72% # Class of executed instruction
system.cpu.op_class::SimdFloatAlu                   0      0.00%     83.72% # Class of executed instruction
system.cpu.op_class::SimdFloatCmp                   0      0.00%     83.72% # Class of executed instruction
system.cpu.op_class::SimdFloatCvt                1712      0.09%     83.81% # Class of executed instruction
system.cpu.op_class::SimdFloatDiv                   0      0.00%     83.81% # Class of executed instruction
system.cpu.op_class::SimdFloatMisc                  0      0.00%     83.81% # Class of executed instruction
system.cpu.op_class::SimdFloatMult               2568      0.13%     83.94% # Class of executed instruction
system.cpu.op_class::SimdFloatMultAcc               0      0.00%     83.94% # Class of executed instruction
system.cpu.op_class::SimdFloatSqrt                856      0.04%     83.99% # Class of executed instruction
system.cpu.op_class::SimdReduceAdd                  0      0.00%     83.99% # Class of executed instruction
system.cpu.op_class::SimdReduceAlu                  0      0.00%     83.99% # Class of executed instruction
system.cpu.op_class::SimdReduceCmp                  0      0.00%     83.99% # Class of executed instruction
system.cpu.op_class::SimdFloatReduceAdd             0      0.00%     83.99% # Class of executed instruction
system.cpu.op_class::SimdFloatReduceCmp             0      0.00%     83.99% # Class of executed instruction
system.cpu.op_class::SimdAes                        0      0.00%     83.99% # Class of executed instruction
system.cpu.op_class::SimdAesMix                     0      0.00%     83.99% # Class of executed instruction
system.cpu.op_class::SimdSha1Hash                   0      0.00%     83.99% # Class of executed instruction
system.cpu.op_class::SimdSha1Hash2                  0      0.00%     83.99% # Class of executed instruction
system.cpu.op_class::SimdSha256Hash                 0      0.00%     83.99% # Class of executed instruction
system.cpu.op_class::SimdSha256Hash2                0      0.00%     83.99% # Class of executed instruction
system.cpu.op_class::SimdShaSigma2                  0      0.00%     83.99% # Class of executed instruction
system.cpu.op_class::SimdShaSigma3                  0      0.00%     83.99% # Class of executed instruction
system.cpu.op_class::SimdPredAlu                    0      0.00%     83.99% # Class of executed instruction
system.cpu.op_class::MemRead                   160906      8.22%     92.21% # Class of executed instruction
system.cpu.op_class::MemWrite                  126777      6.48%     98.69% # Class of executed instruction
system.cpu.op_class::FloatMemRead               22045      1.13%     99.81% # Class of executed instruction
system.cpu.op_class::FloatMemWrite               3692      0.19%    100.00% # Class of executed instruction
system.cpu.op_class::IprAccess                      0      0.00%    100.00% # Class of executed instruction
system.cpu.op_class::InstPrefetch                   0      0.00%    100.00% # Class of executed instruction
system.cpu.op_class::total                    1957189                       # Class of executed instruction
system.cpu.workload.numSyscalls                    34                       # Number of system calls
system.dynamic_cache.flushTicks                     0                       # Ticks taken to flush
system.dynamic_cache.numFlushes                     0                       # Number of Flushes Taken
system.cache_small.demand_hits::.cpu.inst         9569                       # number of demand (read+write) hits
system.cache_small.demand_hits::.cpu.data          497                       # number of demand (read+write) hits
system.cache_small.demand_hits::total           10066                       # number of demand (read+write) hits
system.cache_small.overall_hits::.cpu.inst         9569                       # number of overall hits
system.cache_small.overall_hits::.cpu.data          497                       # number of overall hits
system.cache_small.overall_hits::total          10066                       # number of overall hits
system.cache_small.demand_misses::.cpu.inst         2927                       # number of demand (read+write) misses
system.cache_small.demand_misses::.cpu.data         4085                       # number of demand (read+write) misses
system.cache_small.demand_misses::total          7012                       # number of demand (read+write) misses
system.cache_small.overall_misses::.cpu.inst         2927                       # number of overall misses
system.cache_small.overall_misses::.cpu.data         4085                       # number of overall misses
system.cache_small.overall_misses::total         7012                       # number of overall misses
system.cache_small.demand_miss_latency::.cpu.inst    191391000                       # number of demand (read+write) miss cycles
system.cache_small.demand_miss_latency::.cpu.data    249025000                       # number of demand (read+write) miss cycles
system.cache_small.demand_miss_latency::total    440416000                       # number of demand (read+write) miss cycles
system.cache_small.overall_miss_latency::.cpu.inst    191391000                       # number of overall miss cycles
system.cache_small.overall_miss_latency::.cpu.data    249025000                       # number of overall miss cycles
system.cache_small.overall_miss_latency::total    440416000                       # number of overall miss cycles
system.cache_small.demand_accesses::.cpu.inst        12496                       # number of demand (read+write) accesses
system.cache_small.demand_accesses::.cpu.data         4582                       # number of demand (read+write) accesses
system.cache_small.demand_accesses::total        17078                       # number of demand (read+write) accesses
system.cache_small.overall_accesses::.cpu.inst        12496                       # number of overall (read+write) accesses
system.cache_small.overall_accesses::.cpu.data         4582                       # number of overall (read+write) accesses
system.cache_small.overall_accesses::total        17078                       # number of overall (read+write) accesses
system.cache_small.demand_miss_rate::.cpu.inst     0.234235                       # miss rate for demand accesses
system.cache_small.demand_miss_rate::.cpu.data     0.891532                       # miss rate for demand accesses
system.cache_small.demand_miss_rate::total     0.410587                       # miss rate for demand accesses
system.cache_small.overall_miss_rate::.cpu.inst     0.234235                       # miss rate for overall accesses
system.cache_small.overall_miss_rate::.cpu.data     0.891532                       # miss rate for overall accesses
system.cache_small.overall_miss_rate::total     0.410587                       # miss rate for overall accesses
system.cache_small.demand_avg_miss_latency::.cpu.inst 65388.110694                       # average overall miss latency
system.cache_small.demand_avg_miss_latency::.cpu.data 60960.832313                       # average overall miss latency
system.cache_small.demand_avg_miss_latency::total 62808.899030                       # average overall miss latency
system.cache_small.overall_avg_miss_latency::.cpu.inst 65388.110694                       # average overall miss latency
system.cache_small.overall_avg_miss_latency::.cpu.data 60960.832313                       # average overall miss latency
system.cache_small.overall_avg_miss_latency::total 62808.899030                       # average overall miss latency
system.cache_small.blocked_cycles::no_mshrs            0                       # number of cycles access was blocked
system.cache_small.blocked_cycles::no_targets            0                       # number of cycles access was blocked
system.cache_small.blocked::no_mshrs                0                       # number of cycles access was blocked
system.cache_small.blocked::no_targets              0                       # number of cycles access was blocked
system.cache_small.avg_blocked_cycles::no_mshrs          nan                       # average number of cycles each access was blocked
system.cache_small.avg_blocked_cycles::no_targets          nan                       # average number of cycles each access was blocked
system.cache_small.writebacks::.writebacks         2313                       # number of writebacks
system.cache_small.writebacks::total             2313                       # number of writebacks
system.cache_small.demand_mshr_misses::.cpu.inst         2927                       # number of demand (read+write) MSHR misses
system.cache_small.demand_mshr_misses::.cpu.data         4085                       # number of demand (read+write) MSHR misses
system.cache_small.demand_mshr_misses::total         7012                       # number of demand (read+write) MSHR misses
system.cache_small.overall_mshr_misses::.cpu.inst         2927                       # number of overall MSHR misses
system.cache_small.overall_mshr_misses::.cpu.data         4085                       # number of overall MSHR misses
system.cache_small.overall_mshr_misses::total         7012                       # number of overall MSHR misses
system.cache_small.demand_mshr_miss_latency::.cpu.inst    185537000                       # number of demand (read+write) MSHR miss cycles
system.cache_small.demand_mshr_miss_latency::.cpu.data    240855000                       # number of demand (read+write) MSHR miss cycles
system.cache_small.demand_mshr_miss_latency::total    426392000                       # number of demand (read+write) MSHR miss cycles
system.cache_small.overall_mshr_miss_latency::.cpu.inst    185537000                       # number of overall MSHR miss cycles
system.cache_small.overall_mshr_miss_latency::.cpu.data    240855000                       # number of overall MSHR miss cycles
system.cache_small.overall_mshr_miss_latency::total    426392000                       # number of overall MSHR miss cycles
system.cache_small.demand_mshr_miss_rate::.cpu.inst     0.234235                       # mshr miss rate for demand accesses
system.cache_small.demand_mshr_miss_rate::.cpu.data     0.891532                       # mshr miss rate for demand accesses
system.cache_small.demand_mshr_miss_rate::total     0.410587                       # mshr miss rate for demand accesses
system.cache_small.overall_mshr_miss_rate::.cpu.inst     0.234235                       # mshr miss rate for overall accesses
system.cache_small.overall_mshr_miss_rate::.cpu.data     0.891532                       # mshr miss rate for overall accesses
system.cache_small.overall_mshr_miss_rate::total     0.410587                       # mshr miss rate for overall accesses
system.cache_small.demand_avg_mshr_miss_latency::.cpu.inst 63388.110694                       # average overall mshr miss latency
system.cache_small.demand_avg_mshr_miss_latency::.cpu.data 58960.832313                       # average overall mshr miss latency
system.cache_small.demand_avg_mshr_miss_latency::total 60808.899030                       # average overall mshr miss latency
system.cache_small.overall_avg_mshr_miss_latency::.cpu.inst 63388.110694                       # average overall mshr miss latency
system.cache_small.overall_avg_mshr_miss_latency::.cpu.data 58960.832313                       # average overall mshr miss latency
system.cache_small.overall_avg_mshr_miss_latency::total 60808.899030                       # average overall mshr miss latency
system.cache_small.replacements                  5986                       # number of replacements
system.cache_small.ReadReq_hits::.cpu.inst         9569                       # number of ReadReq hits
system.cache_small.ReadReq_hits::.cpu.data          497                       # number of ReadReq hits
system.cache_small.ReadReq_hits::total          10066                       # number of ReadReq hits
system.cache_small.ReadReq_misses::.cpu.inst         2927                       # number of ReadReq misses
system.cache_small.ReadReq_misses::.cpu.data         4085                       # number of ReadReq misses
system.cache_small.ReadReq_misses::total         7012                       # number of ReadReq misses
system.cache_small.ReadReq_miss_latency::.cpu.inst    191391000                       # number of ReadReq miss cycles
system.cache_small.ReadReq_miss_latency::.cpu.data    249025000                       # number of ReadReq miss cycles
system.cache_small.ReadReq_miss_latency::total    440416000                       # number of ReadReq miss cycles
system.cache_small.ReadReq_accesses::.cpu.inst        12496                       # number of ReadReq accesses(hits+misses)
system.cache_small.ReadReq_accesses::.cpu.data         4582                       # number of ReadReq accesses(hits+misses)
system.cache_small.ReadReq_accesses::total        17078                       # number of ReadReq accesses(hits+misses)
system.cache_small.ReadReq_miss_rate::.cpu.inst     0.234235                       # miss rate for ReadReq accesses
system.cache_small.ReadReq_miss_rate::.cpu.data     0.891532                       # miss rate for ReadReq accesses
system.cache_small.ReadReq_miss_rate::total     0.410587                       # miss rate for ReadReq accesses
system.cache_small.ReadReq_avg_miss_latency::.cpu.inst 65388.110694                       # average ReadReq miss latency
system.cache_small.ReadReq_avg_miss_latency::.cpu.data 60960.832313                       # average ReadReq miss latency
system.cache_small.ReadReq_avg_miss_latency::total 62808.899030                       # average ReadReq miss latency
system.cache_small.ReadReq_mshr_misses::.cpu.inst         2927                       # number of ReadReq MSHR misses
system.cache_small.ReadReq_mshr_misses::.cpu.data         4085                       # number of ReadReq MSHR misses
system.cache_small.ReadReq_mshr_misses::total         7012                       # number of ReadReq MSHR misses
system.cache_small.ReadReq_mshr_miss_latency::.cpu.inst    185537000                       # number of ReadReq MSHR miss cycles
system.cache_small.ReadReq_mshr_miss_latency::.cpu.data    240855000                       # number of ReadReq MSHR miss cycles
system.cache_small.ReadReq_mshr_miss_latency::total    426392000                       # number of ReadReq MSHR miss cycles
system.cache_small.ReadReq_mshr_miss_rate::.cpu.inst     0.234235                       # mshr miss rate for ReadReq accesses
system.cache_small.ReadReq_mshr_miss_rate::.cpu.data     0.891532                       # mshr miss rate for ReadReq accesses
system.cache_small.ReadReq_mshr_miss_rate::total     0.410587                       # mshr miss rate for ReadReq accesses
system.cache_small.ReadReq_avg_mshr_miss_latency::.cpu.inst 63388.110694                       # average ReadReq mshr miss latency
system.cache_small.ReadReq_avg_mshr_miss_latency::.cpu.data 58960.832313                       # average ReadReq mshr miss latency
system.cache_small.ReadReq_avg_mshr_miss_latency::total 60808.899030                       # average ReadReq mshr miss latency
system.cache_small.WritebackDirty_hits::.writebacks         3949                       # number of WritebackDirty hits
system.cache_small.WritebackDirty_hits::total         3949                       # number of WritebackDirty hits
system.cache_small.WritebackDirty_accesses::.writebacks         3949                       # number of WritebackDirty accesses(hits+misses)
system.cache_small.WritebackDirty_accesses::total         3949                       # number of WritebackDirty accesses(hits+misses)
system.cache_small.power_state.pwrStateResidencyTicks::UNDEFINED   4317328000                       # Cumulative time (in ticks) in various power states
system.cache_small.tags.tagsinuse         1821.814837                       # Cycle average of tags in use
system.cache_small.tags.total_refs               9486                       # Total number of references to valid blocks.
system.cache_small.tags.sampled_refs             5986                       # Sample count of references to valid blocks.
system.cache_small.tags.avg_refs             1.584698                       # Average number of references to valid blocks.
system.cache_small.tags.warmup_cycle            76000                       # Cycle when the warmup percentage was hit.
system.cache_small.tags.occ_blocks::.writebacks   227.189741                       # Average occupied blocks per requestor
system.cache_small.tags.occ_blocks::.cpu.inst   301.776786                       # Average occupied blocks per requestor
system.cache_small.tags.occ_blocks::.cpu.data  1292.848311                       # Average occupied blocks per requestor
system.cache_small.tags.occ_percent::.writebacks     0.110932                       # Average percentage of cache occupancy
system.cache_small.tags.occ_percent::.cpu.inst     0.147352                       # Average percentage of cache occupancy
system.cache_small.tags.occ_percent::.cpu.data     0.631274                       # Average percentage of cache occupancy
system.cache_small.tags.occ_percent::total     0.889558                       # Average percentage of cache occupancy
system.cache_small.tags.occ_task_id_blocks::1024         2013                       # Occupied blocks per task id
system.cache_small.tags.age_task_id_blocks_1024::0           14                       # Occupied blocks per task id
system.cache_small.tags.age_task_id_blocks_1024::1          101                       # Occupied blocks per task id
system.cache_small.tags.age_task_id_blocks_1024::2          199                       # Occupied blocks per task id
system.cache_small.tags.age_task_id_blocks_1024::3         1699                       # Occupied blocks per task id
system.cache_small.tags.occ_task_id_percent::1024     0.982910                       # Percentage of cache occupancy per task id
system.cache_small.tags.tag_accesses            29026                       # Number of tag accesses
system.cache_small.tags.data_accesses           29026                       # Number of data accesses
system.cache_small.tags.power_state.pwrStateResidencyTicks::UNDEFINED   4317328000                       # Cumulative time (in ticks) in various power states
system.icache.demand_hits::.cpu.inst          1302100                       # number of demand (read+write) hits
system.icache.demand_hits::total              1302100                       # number of demand (read+write) hits
system.icache.overall_hits::.cpu.inst         1302100                       # number of overall hits
system.icache.overall_hits::total             1302100                       # number of overall hits
system.icache.demand_misses::.cpu.inst          28351                       # number of demand (read+write) misses
system.icache.demand_misses::total              28351                       # number of demand (read+write) misses
system.icache.overall_misses::.cpu.inst         28351                       # number of overall misses
system.icache.overall_misses::total             28351                       # number of overall misses
system.icache.demand_miss_latency::.cpu.inst    660980000                       # number of demand (read+write) miss cycles
system.icache.demand_miss_latency::total    660980000                       # number of demand (read+write) miss cycles
system.icache.overall_miss_latency::.cpu.inst    660980000                       # number of overall miss cycles
system.icache.overall_miss_latency::total    660980000                       # number of overall miss cycles
system.icache.demand_accesses::.cpu.inst      1330451                       # number of demand (read+write) accesses
system.icache.demand_accesses::total          1330451                       # number of demand (read+write) accesses
system.icache.overall_accesses::.cpu.inst      1330451                       # number of overall (read+write) accesses
system.icache.overall_accesses::total         1330451                       # number of overall (read+write) accesses
system.icache.demand_miss_rate::.cpu.inst     0.021309                       # miss rate for demand accesses
system.icache.demand_miss_rate::total        0.021309                       # miss rate for demand accesses
system.icache.overall_miss_rate::.cpu.inst     0.021309                       # miss rate for overall accesses
system.icache.overall_miss_rate::total       0.021309                       # miss rate for overall accesses
system.icache.demand_avg_miss_latency::.cpu.inst 23314.168812                       # average overall miss latency
system.icache.demand_avg_miss_latency::total 23314.168812                       # average overall miss latency
system.icache.overall_avg_miss_latency::.cpu.inst 23314.168812                       # average overall miss latency
system.icache.overall_avg_miss_latency::total 23314.168812                       # average overall miss latency
system.icache.blocked_cycles::no_mshrs              0                       # number of cycles access was blocked
system.icache.blocked_cycles::no_targets            0                       # number of cycles access was blocked
system.icache.blocked::no_mshrs                     0                       # number of cycles access was blocked
system.icache.blocked::no_targets                   0                       # number of cycles access was blocked
system.icache.avg_blocked_cycles::no_mshrs          nan                       # average number of cycles each access was blocked
system.icache.avg_blocked_cycles::no_targets          nan                       # average number of cycles each access was blocked
system.icache.demand_mshr_misses::.cpu.inst        28351                       # number of demand (read+write) MSHR misses
system.icache.demand_mshr_misses::total         28351                       # number of demand (read+write) MSHR misses
system.icache.overall_mshr_misses::.cpu.inst        28351                       # number of overall MSHR misses
system.icache.overall_mshr_misses::total        28351                       # number of overall MSHR misses
system.icache.demand_mshr_miss_latency::.cpu.inst    604280000                       # number of demand (read+write) MSHR miss cycles
system.icache.demand_mshr_miss_latency::total    604280000                       # number of demand (read+write) MSHR miss cycles
system.icache.overall_mshr_miss_latency::.cpu.inst    604280000                       # number of overall MSHR miss cycles
system.icache.overall_mshr_miss_latency::total    604280000                       # number of overall MSHR miss cycles
system.icache.demand_mshr_miss_rate::.cpu.inst     0.021309                       # mshr miss rate for demand accesses
system.icache.demand_mshr_miss_rate::total     0.021309                       # mshr miss rate for demand accesses
system.icache.overall_mshr_miss_rate::.cpu.inst     0.021309                       # mshr miss rate for overall accesses
system.icache.overall_mshr_miss_rate::total     0.021309                       # mshr miss rate for overall accesses
system.icache.demand_avg_mshr_miss_latency::.cpu.inst 21314.239357                       # average overall mshr miss latency
system.icache.demand_avg_mshr_miss_latency::total 21314.239357                       # average overall mshr miss latency
system.icache.overall_avg_mshr_miss_latency::.cpu.inst 21314.239357                       # average overall mshr miss latency
system.icache.overall_avg_mshr_miss_latency::total 21314.239357                       # average overall mshr miss latency
system.icache.replacements                      28094                       # number of replacements
system.icache.ReadReq_hits::.cpu.inst         1302100                       # number of ReadReq hits
system.icache.ReadReq_hits::total             1302100                       # number of ReadReq hits
system.icache.ReadReq_misses::.cpu.inst         28351                       # number of ReadReq misses
system.icache.ReadReq_misses::total             28351                       # number of ReadReq misses
system.icache.ReadReq_miss_latency::.cpu.inst    660980000                       # number of ReadReq miss cycles
system.icache.ReadReq_miss_latency::total    660980000                       # number of ReadReq miss cycles
system.icache.ReadReq_accesses::.cpu.inst      1330451                       # number of ReadReq accesses(hits+misses)
system.icache.ReadReq_accesses::total         1330451                       # number of ReadReq accesses(hits+misses)
system.icache.ReadReq_miss_rate::.cpu.inst     0.021309                       # miss rate for ReadReq accesses
system.icache.ReadReq_miss_rate::total       0.021309                       # miss rate for ReadReq accesses
system.icache.ReadReq_avg_miss_latency::.cpu.inst 23314.168812                       # average ReadReq miss latency
system.icache.ReadReq_avg_miss_latency::total 23314.168812                       # average ReadReq miss latency
system.icache.ReadReq_mshr_misses::.cpu.inst        28351                       # number of ReadReq MSHR misses
system.icache.ReadReq_mshr_misses::total        28351                       # number of ReadReq MSHR misses
system.icache.ReadReq_mshr_miss_latency::.cpu.inst    604280000                       # number of ReadReq MSHR miss cycles
system.icache.ReadReq_mshr_miss_latency::total    604280000                       # number of ReadReq MSHR miss cycles
system.icache.ReadReq_mshr_miss_rate::.cpu.inst     0.021309                       # mshr miss rate for ReadReq accesses
system.icache.ReadReq_mshr_miss_rate::total     0.021309                       # mshr miss rate for ReadReq accesses
system.icache.ReadReq_avg_mshr_miss_latency::.cpu.inst 21314.239357                       # average ReadReq mshr miss latency
system.icache.ReadReq_avg_mshr_miss_latency::total 21314.239357                       # average ReadReq mshr miss latency
system.icache.power_state.pwrStateResidencyTicks::UNDEFINED   4317328000                       # Cumulative time (in ticks) in various power states
system.icache.tags.tagsinuse               251.117017                       # Cycle average of tags in use
system.icache.tags.total_refs                 1126637                       # Total number of references to valid blocks.
system.icache.tags.sampled_refs                 28094                       # Sample count of references to valid blocks.
system.icache.tags.avg_refs                 40.102406                       # Average number of references to valid blocks.
system.icache.tags.warmup_cycle                 82000                       # Cycle when the warmup percentage was hit.
system.icache.tags.occ_blocks::.cpu.inst   251.117017                       # Average occupied blocks per requestor
system.icache.tags.occ_percent::.cpu.inst     0.980926                       # Average percentage of cache occupancy
system.icache.tags.occ_percent::total        0.980926                       # Average percentage of cache occupancy
system.icache.tags.occ_task_id_blocks::1024          256                       # Occupied blocks per task id
system.icache.tags.age_task_id_blocks_1024::0           37                       # Occupied blocks per task id
system.icache.tags.age_task_id_blocks_1024::1           90                       # Occupied blocks per task id
system.icache.tags.age_task_id_blocks_1024::2            6                       # Occupied blocks per task id
system.icache.tags.age_task_id_blocks_1024::3          123                       # Occupied blocks per task id
system.icache.tags.occ_task_id_percent::1024            1                       # Percentage of cache occupancy per task id
system.icache.tags.tag_accesses               1358801                       # Number of tag accesses
system.icache.tags.data_accesses              1358801                       # Number of data accesses
system.icache.tags.power_state.pwrStateResidencyTicks::UNDEFINED   4317328000                       # Cumulative time (in ticks) in various power states
system.membus.trans_dist::ReadReq                7012                       # Transaction distribution
system.membus.trans_dist::ReadResp               7012                       # Transaction distribution
system.membus.trans_dist::WritebackDirty         2313                       # Transaction distribution
system.membus.pkt_count_system.cache_small.mem_side::system.mem_ctrl.port        16337                       # Packet count per connected master and slave (bytes)
system.membus.pkt_count_system.cache_small.mem_side::total        16337                       # Packet count per connected master and slave (bytes)
system.membus.pkt_count::total                  16337                       # Packet count per connected master and slave (bytes)
system.membus.pkt_size_system.cache_small.mem_side::system.mem_ctrl.port       596800                       # Cumulative packet size per connected master and slave (bytes)
system.membus.pkt_size_system.cache_small.mem_side::total       596800                       # Cumulative packet size per connected master and slave (bytes)
system.membus.pkt_size::total                  596800                       # Cumulative packet size per connected master and slave (bytes)
system.membus.reqLayer2.occupancy            18577000                       # Layer occupancy (ticks)
system.membus.reqLayer2.utilization               0.4                       # Layer utilization (%)
system.membus.respLayer1.occupancy           37608250                       # Layer occupancy (ticks)
system.membus.respLayer1.utilization              0.9                       # Layer utilization (%)
system.membus.power_state.pwrStateResidencyTicks::UNDEFINED   4317328000                       # Cumulative time (in ticks) in various power states
system.mem_ctrl.bytes_read::.cpu.inst          187328                       # Number of bytes read from this memory
system.mem_ctrl.bytes_read::.cpu.data          261440                       # Number of bytes read from this memory
system.mem_ctrl.bytes_read::total              448768                       # Number of bytes read from this memory
system.mem_ctrl.bytes_inst_read::.cpu.inst       187328                       # Number of instructions bytes read from this memory
system.mem_ctrl.bytes_inst_read::total         187328                       # Number of instructions bytes read from this memory
system.mem_ctrl.bytes_written::.writebacks       148032                       # Number of bytes written to this memory
system.mem_ctrl.bytes_written::total           148032                       # Number of bytes written to this memory
system.mem_ctrl.num_reads::.cpu.inst             2927                       # Number of read requests responded to by this memory
system.mem_ctrl.num_reads::.cpu.data             4085                       # Number of read requests responded to by this memory
system.mem_ctrl.num_reads::total                 7012                       # Number of read requests responded to by this memory
system.mem_ctrl.num_writes::.writebacks          2313                       # Number of write requests responded to by this memory
system.mem_ctrl.num_writes::total                2313                       # Number of write requests responded to by this memory
system.mem_ctrl.bw_read::.cpu.inst           43389800                       # Total read bandwidth from this memory (bytes/s)
system.mem_ctrl.bw_read::.cpu.data           60555974                       # Total read bandwidth from this memory (bytes/s)
system.mem_ctrl.bw_read::total              103945774                       # Total read bandwidth from this memory (bytes/s)
system.mem_ctrl.bw_inst_read::.cpu.inst      43389800                       # Instruction read bandwidth from this memory (bytes/s)
system.mem_ctrl.bw_inst_read::total          43389800                       # Instruction read bandwidth from this memory (bytes/s)
system.mem_ctrl.bw_write::.writebacks        34287874                       # Write bandwidth from this memory (bytes/s)
system.mem_ctrl.bw_write::total              34287874                       # Write bandwidth from this memory (bytes/s)
system.mem_ctrl.bw_total::.writebacks        34287874                       # Total bandwidth to/from this memory (bytes/s)
system.mem_ctrl.bw_total::.cpu.inst          43389800                       # Total bandwidth to/from this memory (bytes/s)
system.mem_ctrl.bw_total::.cpu.data          60555974                       # Total bandwidth to/from this memory (bytes/s)
system.mem_ctrl.bw_total::total             138233648                       # Total bandwidth to/from this memory (bytes/s)
system.mem_ctrl.avgPriority_.writebacks::samples      2192.00                       # Average QoS priority value for accepted requests
system.mem_ctrl.avgPriority_.cpu.inst::samples      2927.00                       # Average QoS priority value for accepted requests
system.mem_ctrl.avgPriority_.cpu.data::samples      4077.00                       # Average QoS priority value for accepted requests
system.mem_ctrl.priorityMinLatency       0.000000018750                       # per QoS priority minimum request to response latency (s)
system.mem_ctrl.priorityMaxLatency       0.000910806500                       # per QoS priority maximum request to response latency (s)
system.mem_ctrl.numReadWriteTurnArounds           126                       # Number of turnarounds from READ to WRITE
system.mem_ctrl.numWriteReadTurnArounds           126                       # Number of turnarounds from WRITE to READ
system.mem_ctrl.numStayReadState                17364                       # Number of times bus staying in READ state
system.mem_ctrl.numStayWriteState                2053                       # Number of times bus staying in WRITE state
system.mem_ctrl.readReqs                         7012                       # Number of read requests accepted
system.mem_ctrl.writeReqs                        2313                       # Number of write requests accepted
system.mem_ctrl.readBursts                       7012                       # Number of DRAM read bursts, including those serviced by the write queue
system.mem_ctrl.writeBursts                      2313                       # Number of DRAM write bursts, including those merged in the write queue
system.mem_ctrl.servicedByWrQ                       8                       # Number of DRAM read bursts serviced by the write queue
system.mem_ctrl.mergedWrBursts                    121                       # Number of DRAM write bursts merged with an existing one
system.mem_ctrl.neitherReadNorWriteReqs             0                       # Number of requests that are neither read nor write
system.mem_ctrl.perBankRdBursts::0                489                       # Per bank write bursts
system.mem_ctrl.perBankRdBursts::1                306                       # Per bank write bursts
system.mem_ctrl.perBankRdBursts::2                306                       # Per bank write bursts
system.mem_ctrl.perBankRdBursts::3                262                       # Per bank write bursts
system.mem_ctrl.perBankRdBursts::4                337                       # Per bank write bursts
system.mem_ctrl.perBankRdBursts::5                672                       # Per bank write bursts
system.mem_ctrl.perBankRdBursts::6                605                       # Per bank write bursts
system.mem_ctrl.perBankRdBursts::7                302                       # Per bank write bursts
system.mem_ctrl.perBankRdBursts::8                373                       # Per bank write bursts
system.mem_ctrl.perBankRdBursts::9                250                       # Per bank write bursts
system.mem_ctrl.perBankRdBursts::10               244                       # Per bank write bursts
system.mem_ctrl.perBankRdBursts::11               878                       # Per bank write bursts
system.mem_ctrl.perBankRdBursts::12               319                       # Per bank write bursts
system.mem_ctrl.perBankRdBursts::13              1120                       # Per bank write bursts
system.mem_ctrl.perBankRdBursts::14               315                       # Per bank write bursts
system.mem_ctrl.perBankRdBursts::15               226                       # Per bank write bursts
system.mem_ctrl.perBankWrBursts::0                123                       # Per bank write bursts
system.mem_ctrl.perBankWrBursts::1                135                       # Per bank write bursts
system.mem_ctrl.perBankWrBursts::2                133                       # Per bank write bursts
system.mem_ctrl.perBankWrBursts::3                 91                       # Per bank write bursts
system.mem_ctrl.perBankWrBursts::4                155                       # Per bank write bursts
system.mem_ctrl.perBankWrBursts::5                167                       # Per bank write bursts
system.mem_ctrl.perBankWrBursts::6                251                       # Per bank write bursts
system.mem_ctrl.perBankWrBursts::7                129                       # Per bank write bursts
system.mem_ctrl.perBankWrBursts::8                214                       # Per bank write bursts
system.mem_ctrl.perBankWrBursts::9                 97                       # Per bank write bursts
system.mem_ctrl.perBankWrBursts::10               111                       # Per bank write bursts
system.mem_ctrl.perBankWrBursts::11               167                       # Per bank write bursts
system.mem_ctrl.perBankWrBursts::12                88                       # Per bank write bursts
system.mem_ctrl.perBankWrBursts::13               151                       # Per bank write bursts
system.mem_ctrl.perBankWrBursts::14               105                       # Per bank write bursts
system.mem_ctrl.perBankWrBursts::15                59                       # Per bank write bursts
system.mem_ctrl.avgRdQLen                        1.00                       # Average read queue length when enqueuing
system.mem_ctrl.avgWrQLen                       22.90                       # Average write queue length when enqueuing
system.mem_ctrl.totQLat                      75225750                       # Total ticks spent queuing
system.mem_ctrl.totBusLat                    35020000                       # Total ticks spent in databus transfers
system.mem_ctrl.totMemAccLat                206550750                       # Total ticks spent from burst creation until serviced by the DRAM
system.mem_ctrl.avgQLat                      10740.40                       # Average queueing delay per DRAM burst
system.mem_ctrl.avgBusLat                     5000.00                       # Average bus latency per DRAM burst
system.mem_ctrl.avgMemAccLat                 29490.40                       # Average memory access latency per DRAM burst
system.mem_ctrl.numRdRetry                          0                       # Number of times read queue was full causing retry
system.mem_ctrl.numWrRetry                          0                       # Number of times write queue was full causing retry
system.mem_ctrl.readRowHits                      4470                       # Number of row buffer hits during reads
system.mem_ctrl.writeRowHits                     1754                       # Number of row buffer hits during writes
system.mem_ctrl.readRowHitRate                  63.82                       # Row buffer hit rate for reads
system.mem_ctrl.writeRowHitRate                 80.02                       # Row buffer hit rate for writes
system.mem_ctrl.readPktSize::0                      0                       # Read request sizes (log2)
system.mem_ctrl.readPktSize::1                      0                       # Read request sizes (log2)
system.mem_ctrl.readPktSize::2                      0                       # Read request sizes (log2)
system.mem_ctrl.readPktSize::3                      0                       # Read request sizes (log2)
system.mem_ctrl.readPktSize::4                      0                       # Read request sizes (log2)
system.mem_ctrl.readPktSize::5                      0                       # Read request sizes (log2)
system.mem_ctrl.readPktSize::6                   7012                       # Read request sizes (log2)
system.mem_ctrl.writePktSize::0                     0                       # Write request sizes (log2)
system.mem_ctrl.writePktSize::1                     0                       # Write request sizes (log2)
system.mem_ctrl.writePktSize::2                     0                       # Write request sizes (log2)
system.mem_ctrl.writePktSize::3                     0                       # Write request sizes (log2)
system.mem_ctrl.writePktSize::4                     0                       # Write request sizes (log2)
system.mem_ctrl.writePktSize::5                     0                       # Write request sizes (log2)
system.mem_ctrl.writePktSize::6                  2313                       # Write request sizes (log2)
system.mem_ctrl.rdQLenPdf::0                     7004                       # What read queue length does an incoming req see
system.mem_ctrl.rdQLenPdf::1                        0                       # What read queue length does an incoming req see
system.mem_ctrl.rdQLenPdf::2                        0                       # What read queue length does an incoming req see
system.mem_ctrl.rdQLenPdf::3                        0                       # What read queue length does an incoming req see
system.mem_ctrl.rdQLenPdf::4                        0                       # What read queue length does an incoming req see
system.mem_ctrl.rdQLenPdf::5                        0                       # What read queue length does an incoming req see
system.mem_ctrl.rdQLenPdf::6                        0                       # What read queue length does an incoming req see
system.mem_ctrl.rdQLenPdf::7                        0                       # What read queue length does an incoming req see
system.mem_ctrl.rdQLenPdf::8                        0                       # What read queue length does an incoming req see
system.mem_ctrl.rdQLenPdf::9                        0                       # What read queue length does an incoming req see
system.mem_ctrl.rdQLenPdf::10                       0                       # What read queue length does an incoming req see
system.mem_ctrl.rdQLenPdf::11                       0                       # What read queue length does an incoming req see
system.mem_ctrl.rdQLenPdf::12                       0                       # What read queue length does an incoming req see
system.mem_ctrl.rdQLenPdf::13                       0                       # What read queue length does an incoming req see
system.mem_ctrl.rdQLenPdf::14                       0                       # What read queue length does an incoming req see
system.mem_ctrl.rdQLenPdf::15                       0                       # What read queue length does an incoming req see
system.mem_ctrl.rdQLenPdf::16                       0                       # What read queue length does an incoming req see
system.mem_ctrl.rdQLenPdf::17                       0                       # What read queue length does an incoming req see
system.mem_ctrl.rdQLenPdf::18                       0                       # What read queue length does an incoming req see
system.mem_ctrl.rdQLenPdf::19                       0                       # What read queue length does an incoming req see
system.mem_ctrl.rdQLenPdf::20                       0                       # What read queue length does an incoming req see
system.mem_ctrl.rdQLenPdf::21                       0                       # What read queue length does an incoming req see
system.mem_ctrl.rdQLenPdf::22                       0                       # What read queue length does an incoming req see
system.mem_ctrl.rdQLenPdf::23                       0                       # What read queue length does an incoming req see
system.mem_ctrl.rdQLenPdf::24                       0                       # What read queue length does an incoming req see
system.mem_ctrl.rdQLenPdf::25                       0                       # What read queue length does an incoming req see
system.mem_ctrl.rdQLenPdf::26                       0                       # What read queue length does an incoming req see
system.mem_ctrl.rdQLenPdf::27                       0                       # What read queue length does an incoming req see
system.mem_ctrl.rdQLenPdf::28                       0                       # What read queue length does an incoming req see
system.mem_ctrl.rdQLenPdf::29                       0                       # What read queue length does an incoming req see
system.mem_ctrl.rdQLenPdf::30                       0                       # What read queue length does an incoming req see
system.mem_ctrl.rdQLenPdf::31                       0                       # What read queue length does an incoming req see
system.mem_ctrl.wrQLenPdf::0                        1                       # What write queue length does an incoming req see
system.mem_ctrl.wrQLenPdf::1                        1                       # What write queue length does an incoming req see
system.mem_ctrl.wrQLenPdf::2                        1                       # What write queue length does an incoming req see
system.mem_ctrl.wrQLenPdf::3                        1                       # What write queue length does an incoming req see
system.mem_ctrl.wrQLenPdf::4                        1                       # What write queue length does an incoming req see
system.mem_ctrl.wrQLenPdf::5                        1                       # What write queue length does an incoming req see
system.mem_ctrl.wrQLenPdf::6                        1                       # What write queue length does an incoming req see
system.mem_ctrl.wrQLenPdf::7                        1                       # What write queue length does an incoming req see
system.mem_ctrl.wrQLenPdf::8                        1                       # What write queue length does an incoming req see
system.mem_ctrl.wrQLenPdf::9                        1                       # What write queue length does an incoming req see
system.mem_ctrl.wrQLenPdf::10                       1                       # What write queue length does an incoming req see
system.mem_ctrl.wrQLenPdf::11                       1                       # What write queue length does an incoming req see
system.mem_ctrl.wrQLenPdf::12                       1                       # What write queue length does an incoming req see
system.mem_ctrl.wrQLenPdf::13                       1                       # What write queue length does an incoming req see
system.mem_ctrl.wrQLenPdf::14                       1                       # What write queue length does an incoming req see
system.mem_ctrl.wrQLenPdf::15                      79                       # What write queue length does an incoming req see
system.mem_ctrl.wrQLenPdf::16                      79                       # What write queue length does an incoming req see
system.mem_ctrl.wrQLenPdf::17                     118                       # What write queue length does an incoming req see
system.mem_ctrl.wrQLenPdf::18                     126                       # What write queue length does an incoming req see
system.mem_ctrl.wrQLenPdf::19                     126                       # What write queue length does an incoming req see
system.mem_ctrl.wrQLenPdf::20                     126                       # What write queue length does an incoming req see
system.mem_ctrl.wrQLenPdf::21                     126                       # What write queue length does an incoming req see
system.mem_ctrl.wrQLenPdf::22                     126                       # What write queue length does an incoming req see
system.mem_ctrl.wrQLenPdf::23                     126                       # What write queue length does an incoming req see
system.mem_ctrl.wrQLenPdf::24                     126                       # What write queue length does an incoming req see
system.mem_ctrl.wrQLenPdf::25                     126                       # What write queue length does an incoming req see
system.mem_ctrl.wrQLenPdf::26                     134                       # What write queue length does an incoming req see
system.mem_ctrl.wrQLenPdf::27                     127                       # What write queue length does an incoming req see
system.mem_ctrl.wrQLenPdf::28                     126                       # What write queue length does an incoming req see
system.mem_ctrl.wrQLenPdf::29                     127                       # What write queue length does an incoming req see
system.mem_ctrl.wrQLenPdf::30                     127                       # What write queue length does an incoming req see
system.mem_ctrl.wrQLenPdf::31                     126                       # What write queue length does an incoming req see
system.mem_ctrl.wrQLenPdf::32                     126                       # What write queue length does an incoming req see
system.mem_ctrl.wrQLenPdf::33                       0                       # What write queue length does an incoming req see
system.mem_ctrl.wrQLenPdf::34                       0                       # What write queue length does an incoming req see
system.mem_ctrl.wrQLenPdf::35                       0                       # What write queue length does an incoming req see
system.mem_ctrl.wrQLenPdf::36                       0                       # What write queue length does an incoming req see
system.mem_ctrl.wrQLenPdf::37                       0                       # What write queue length does an incoming req see
system.mem_ctrl.wrQLenPdf::38                       0                       # What write queue length does an incoming req see
system.mem_ctrl.wrQLenPdf::39                       0                       # What write queue length does an incoming req see
system.mem_ctrl.wrQLenPdf::40                       0                       # What write queue length does an incoming req see
system.mem_ctrl.wrQLenPdf::41                       0                       # What write queue length does an incoming req see
system.mem_ctrl.wrQLenPdf::42                       0                       # What write queue length does an incoming req see
system.mem_ctrl.wrQLenPdf::43                       0                       # What write queue length does an incoming req see
system.mem_ctrl.wrQLenPdf::44                       0                       # What write queue length does an incoming req see
system.mem_ctrl.wrQLenPdf::45                       0                       # What write queue length does an incoming req see
system.mem_ctrl.wrQLenPdf::46                       0                       # What write queue length does an incoming req see
system.mem_ctrl.wrQLenPdf::47                       0                       # What write queue length does an incoming req see
system.mem_ctrl.wrQLenPdf::48                       0                       # What write queue length does an incoming req see
system.mem_ctrl.wrQLenPdf::49                       0                       # What write queue length does an incoming req see
system.mem_ctrl.wrQLenPdf::50                       0                       # What write queue length does an incoming req see
system.mem_ctrl.wrQLenPdf::51                       0                       # What write queue length does an incoming req see
system.mem_ctrl.wrQLenPdf::52                       0                       # What write queue length does an incoming req see
system.mem_ctrl.wrQLenPdf::53                       0                       # What write queue length does an incoming req see
system.mem_ctrl.wrQLenPdf::54                       0                       # What write queue length does an incoming req see
system.mem_ctrl.wrQLenPdf::55                       0                       # What write queue length does an incoming req see
system.mem_ctrl.wrQLenPdf::56                       0                       # What write queue length does an incoming req see
system.mem_ctrl.wrQLenPdf::57                       0                       # What write queue length does an incoming req see
system.mem_ctrl.wrQLenPdf::58                       0                       # What write queue length does an incoming req see
system.mem_ctrl.wrQLenPdf::59                       0                       # What write queue length does an incoming req see
system.mem_ctrl.wrQLenPdf::60                       0                       # What write queue length does an incoming req see
system.mem_ctrl.wrQLenPdf::61                       0                       # What write queue length does an incoming req see
system.mem_ctrl.wrQLenPdf::62                       0                       # What write queue length does an incoming req see
system.mem_ctrl.wrQLenPdf::63                       0                       # What write queue length does an incoming req see
system.mem_ctrl.bytesPerActivate::samples         2952                       # Bytes accessed per row activation
system.mem_ctrl.bytesPerActivate::mean     198.915989                       # Bytes accessed per row activation
system.mem_ctrl.bytesPerActivate::gmean    128.020851                       # Bytes accessed per row activation
system.mem_ctrl.bytesPerActivate::stdev    240.144802                       # Bytes accessed per row activation
system.mem_ctrl.bytesPerActivate::0-127          1412     47.83%     47.83% # Bytes accessed per row activation
system.mem_ctrl.bytesPerActivate::128-255          846     28.66%     76.49% # Bytes accessed per row activation
system.mem_ctrl.bytesPerActivate::256-383          299     10.13%     86.62% # Bytes accessed per row activation
system.mem_ctrl.bytesPerActivate::384-511           83      2.81%     89.43% # Bytes accessed per row activation
system.mem_ctrl.bytesPerActivate::512-639           65      2.20%     91.63% # Bytes accessed per row activation
system.mem_ctrl.bytesPerActivate::640-767           49      1.66%     93.29% # Bytes accessed per row activation
system.mem_ctrl.bytesPerActivate::768-895           38      1.29%     94.58% # Bytes accessed per row activation
system.mem_ctrl.bytesPerActivate::896-1023           39      1.32%     95.90% # Bytes accessed per row activation
system.mem_ctrl.bytesPerActivate::1024-1151          121      4.10%    100.00% # Bytes accessed per row activation
system.mem_ctrl.bytesPerActivate::total          2952                       # Bytes accessed per row activation
system.mem_ctrl.rdPerTurnAround::samples          126                       # Reads before turning the bus around for writes
system.mem_ctrl.rdPerTurnAround::mean       55.579365                       # Reads before turning the bus around for writes
system.mem_ctrl.rdPerTurnAround::gmean      33.208965                       # Reads before turning the bus around for writes
system.mem_ctrl.rdPerTurnAround::stdev     129.159149                       # Reads before turning the bus around for writes
system.mem_ctrl.rdPerTurnAround::0-63             103     81.75%     81.75% # Reads before turning the bus around for writes
system.mem_ctrl.rdPerTurnAround::64-127            10      7.94%     89.68% # Reads before turning the bus around for writes
system.mem_ctrl.rdPerTurnAround::128-191            8      6.35%     96.03% # Reads before turning the bus around for writes
system.mem_ctrl.rdPerTurnAround::192-255            4      3.17%     99.21% # Reads before turning the bus around for writes
system.mem_ctrl.rdPerTurnAround::1344-1407            1      0.79%    100.00% # Reads before turning the bus around for writes
system.mem_ctrl.rdPerTurnAround::total            126                       # Reads before turning the bus around for writes
system.mem_ctrl.wrPerTurnAround::samples          126                       # Writes before turning the bus around for reads
system.mem_ctrl.wrPerTurnAround::mean       17.269841                       # Writes before turning the bus around for reads
system.mem_ctrl.wrPerTurnAround::gmean      17.240659                       # Writes before turning the bus around for reads
system.mem_ctrl.wrPerTurnAround::stdev       0.999301                       # Writes before turning the bus around for reads
system.mem_ctrl.wrPerTurnAround::16                47     37.30%     37.30% # Writes before turning the bus around for reads
system.mem_ctrl.wrPerTurnAround::17                 1      0.79%     38.10% # Writes before turning the bus around for reads
system.mem_ctrl.wrPerTurnAround::18                75     59.52%     97.62% # Writes before turning the bus around for reads
system.mem_ctrl.wrPerTurnAround::19                 3      2.38%    100.00% # Writes before turning the bus around for reads
system.mem_ctrl.wrPerTurnAround::total            126                       # Writes before turning the bus around for reads
system.mem_ctrl.bytesReadDRAM                  448256                       # Total number of bytes read from DRAM
system.mem_ctrl.bytesReadWrQ                      512                       # Total number of bytes read from write queue
system.mem_ctrl.bytesWritten                   139264                       # Total number of bytes written to DRAM
system.mem_ctrl.bytesReadSys                   448768                       # Total read bytes from the system interface side
system.mem_ctrl.bytesWrittenSys                148032                       # Total written bytes from the system interface side
system.mem_ctrl.avgRdBW                        103.83                       # Average DRAM read bandwidth in MiByte/s
system.mem_ctrl.avgWrBW                         32.26                       # Average achieved write bandwidth in MiByte/s
system.mem_ctrl.avgRdBWSys                     103.95                       # Average system read bandwidth in MiByte/s
system.mem_ctrl.avgWrBWSys                      34.29                       # Average system write bandwidth in MiByte/s
system.mem_ctrl.peakBW                       12800.00                       # Theoretical peak bandwidth in MiByte/s
system.mem_ctrl.busUtil                          1.06                       # Data bus utilization in percentage
system.mem_ctrl.busUtilRead                      0.81                       # Data bus utilization in percentage for reads
system.mem_ctrl.busUtilWrite                     0.25                       # Data bus utilization in percentage for writes
system.mem_ctrl.totGap                     4316162000                       # Total gap between requests
system.mem_ctrl.avgGap                      462859.20                       # Average gap between requests
system.mem_ctrl.masterReadBytes::.cpu.inst       187328                       # Per-master bytes read from memory
system.mem_ctrl.masterReadBytes::.cpu.data       260928                       # Per-master bytes read from memory
system.mem_ctrl.masterWriteBytes::.writebacks       139264                       # Per-master bytes write to memory
system.mem_ctrl.masterReadRate::.cpu.inst 43389800.357999213040                       # Per-master bytes read from memory rate (Bytes/sec)
system.mem_ctrl.masterReadRate::.cpu.data 60437381.639754965901                       # Per-master bytes read from memory rate (Bytes/sec)
system.mem_ctrl.masterWriteRate::.writebacks 32256988.581826541573                       # Per-master bytes write to memory rate (Bytes/sec)
system.mem_ctrl.masterReadAccesses::.cpu.inst         2927                       # Per-master read serviced memory accesses
system.mem_ctrl.masterReadAccesses::.cpu.data         4085                       # Per-master read serviced memory accesses
system.mem_ctrl.masterWriteAccesses::.writebacks         2313                       # Per-master write serviced memory accesses
system.mem_ctrl.masterReadTotalLat::.cpu.inst     93562250                       # Per-master read total memory access latency
system.mem_ctrl.masterReadTotalLat::.cpu.data    112988500                       # Per-master read total memory access latency
system.mem_ctrl.masterWriteTotalLat::.writebacks  96513904250                       # Per-master write total memory access latency
system.mem_ctrl.masterReadAvgLat::.cpu.inst     31965.24                       # Per-master read average memory access latency
system.mem_ctrl.masterReadAvgLat::.cpu.data     27659.36                       # Per-master read average memory access latency
system.mem_ctrl.masterWriteAvgLat::.writebacks  41726720.38                       # Per-master write average memory access latency
system.mem_ctrl.pageHitRate                     67.68                       # Row buffer hit rate, read and write combined
system.mem_ctrl.rank1.actEnergy              12116580                       # Energy for activate commands per rank (pJ)
system.mem_ctrl.rank1.preEnergy               6440115                       # Energy for precharge commands per rank (pJ)
system.mem_ctrl.rank1.readEnergy             26596500                       # Energy for read commands per rank (pJ)
system.mem_ctrl.rank1.writeEnergy             5178240                       # Energy for write commands per rank (pJ)
system.mem_ctrl.rank1.refreshEnergy      340510560.000000                       # Energy for refresh commands per rank (pJ)
system.mem_ctrl.rank1.actBackEnergy        1253711580                       # Energy for active background per rank (pJ)
system.mem_ctrl.rank1.preBackEnergy         602097120                       # Energy for precharge background per rank (pJ)
system.mem_ctrl.rank1.actPowerDownEnergy            0                       # Energy for active power-down per rank (pJ)
system.mem_ctrl.rank1.prePowerDownEnergy            0                       # Energy for precharge power-down per rank (pJ)
system.mem_ctrl.rank1.selfRefreshEnergy             0                       # Energy for self refresh per rank (pJ)
system.mem_ctrl.rank1.totalEnergy          2246650695                       # Total energy per rank (pJ)
system.mem_ctrl.rank1.averagePower         520.379896                       # Core power per rank (mW)
system.mem_ctrl.rank1.totalIdleTime                 0                       # Total Idle time Per DRAM Rank
system.mem_ctrl.rank1.memoryStateTime::IDLE   1552658750                       # Time in different power states
system.mem_ctrl.rank1.memoryStateTime::REF    144040000                       # Time in different power states
system.mem_ctrl.rank1.memoryStateTime::SREF            0                       # Time in different power states
system.mem_ctrl.rank1.memoryStateTime::PRE_PDN            0                       # Time in different power states
system.mem_ctrl.rank1.memoryStateTime::ACT   2620629250                       # Time in different power states
system.mem_ctrl.rank1.memoryStateTime::ACT_PDN            0                       # Time in different power states
system.mem_ctrl.rank0.actEnergy               8989260                       # Energy for activate commands per rank (pJ)
system.mem_ctrl.rank0.preEnergy               4762725                       # Energy for precharge commands per rank (pJ)
system.mem_ctrl.rank0.readEnergy             23412060                       # Energy for read commands per rank (pJ)
system.mem_ctrl.rank0.writeEnergy             6180480                       # Energy for write commands per rank (pJ)
system.mem_ctrl.rank0.refreshEnergy      340510560.000000                       # Energy for refresh commands per rank (pJ)
system.mem_ctrl.rank0.actBackEnergy        1061883780                       # Energy for active background per rank (pJ)
system.mem_ctrl.rank0.preBackEnergy         763636320                       # Energy for precharge background per rank (pJ)
system.mem_ctrl.rank0.actPowerDownEnergy            0                       # Energy for active power-down per rank (pJ)
system.mem_ctrl.rank0.prePowerDownEnergy            0                       # Energy for precharge power-down per rank (pJ)
system.mem_ctrl.rank0.selfRefreshEnergy             0                       # Energy for self refresh per rank (pJ)
system.mem_ctrl.rank0.totalEnergy          2209375185                       # Total energy per rank (pJ)
system.mem_ctrl.rank0.averagePower         511.745965                       # Core power per rank (mW)
system.mem_ctrl.rank0.totalIdleTime                 0                       # Total Idle time Per DRAM Rank
system.mem_ctrl.rank0.memoryStateTime::IDLE   1974010250                       # Time in different power states
system.mem_ctrl.rank0.memoryStateTime::REF    144040000                       # Time in different power states
system.mem_ctrl.rank0.memoryStateTime::SREF            0                       # Time in different power states
system.mem_ctrl.rank0.memoryStateTime::PRE_PDN            0                       # Time in different power states
system.mem_ctrl.rank0.memoryStateTime::ACT   2199277750                       # Time in different power states
system.mem_ctrl.rank0.memoryStateTime::ACT_PDN            0                       # Time in different power states
system.mem_ctrl.power_state.pwrStateResidencyTicks::UNDEFINED   4317328000                       # Cumulative time (in ticks) in various power states
system.cache_medium.blocked_cycles::no_mshrs            0                       # number of cycles access was blocked
system.cache_medium.blocked_cycles::no_targets            0                       # number of cycles access was blocked
system.cache_medium.blocked::no_mshrs               0                       # number of cycles access was blocked
system.cache_medium.blocked::no_targets             0                       # number of cycles access was blocked
system.cache_medium.avg_blocked_cycles::no_mshrs          nan                       # average number of cycles each access was blocked
system.cache_medium.avg_blocked_cycles::no_targets          nan                       # average number of cycles each access was blocked
system.cache_medium.replacements                    0                       # number of replacements
system.cache_medium.power_state.pwrStateResidencyTicks::UNDEFINED   4317328000                       # Cumulative time (in ticks) in various power states
system.cache_medium.tags.tagsinuse                  0                       # Cycle average of tags in use
system.cache_medium.tags.total_refs                 0                       # Total number of references to valid blocks.
system.cache_medium.tags.sampled_refs               0                       # Sample count of references to valid blocks.
system.cache_medium.tags.avg_refs                 nan                       # Average number of references to valid blocks.
system.cache_medium.tags.warmup_cycle               0                       # Cycle when the warmup percentage was hit.
system.cache_medium.tags.tag_accesses               0                       # Number of tag accesses
system.cache_medium.tags.data_accesses              0                       # Number of data accesses
system.cache_medium.tags.power_state.pwrStateResidencyTicks::UNDEFINED   4317328000                       # Cumulative time (in ticks) in various power states
system.clk_domain.clock                          1000                       # Clock period in ticks
system.clk_domain.voltage_domain.voltage            1                       # Voltage in Volts
system.dcache.demand_hits::.cpu.data           307371                       # number of demand (read+write) hits
system.dcache.demand_hits::total               307371                       # number of demand (read+write) hits
system.dcache.overall_hits::.cpu.data          307375                       # number of overall hits
system.dcache.overall_hits::total              307375                       # number of overall hits
system.dcache.demand_misses::.cpu.data           6874                       # number of demand (read+write) misses
system.dcache.demand_misses::total               6874                       # number of demand (read+write) misses
system.dcache.overall_misses::.cpu.data          6951                       # number of overall misses
system.dcache.overall_misses::total              6951                       # number of overall misses
system.dcache.demand_miss_latency::.cpu.data    358137000                       # number of demand (read+write) miss cycles
system.dcache.demand_miss_latency::total    358137000                       # number of demand (read+write) miss cycles
system.dcache.overall_miss_latency::.cpu.data    363858000                       # number of overall miss cycles
system.dcache.overall_miss_latency::total    363858000                       # number of overall miss cycles
system.dcache.demand_accesses::.cpu.data       314245                       # number of demand (read+write) accesses
system.dcache.demand_accesses::total           314245                       # number of demand (read+write) accesses
system.dcache.overall_accesses::.cpu.data       314326                       # number of overall (read+write) accesses
system.dcache.overall_accesses::total          314326                       # number of overall (read+write) accesses
system.dcache.demand_miss_rate::.cpu.data     0.021875                       # miss rate for demand accesses
system.dcache.demand_miss_rate::total        0.021875                       # miss rate for demand accesses
system.dcache.overall_miss_rate::.cpu.data     0.022114                       # miss rate for overall accesses
system.dcache.overall_miss_rate::total       0.022114                       # miss rate for overall accesses
system.dcache.demand_avg_miss_latency::.cpu.data 52100.232761                       # average overall miss latency
system.dcache.demand_avg_miss_latency::total 52100.232761                       # average overall miss latency
system.dcache.overall_avg_miss_latency::.cpu.data 52346.137246                       # average overall miss latency
system.dcache.overall_avg_miss_latency::total 52346.137246                       # average overall miss latency
system.dcache.blocked_cycles::no_mshrs              0                       # number of cycles access was blocked
system.dcache.blocked_cycles::no_targets            0                       # number of cycles access was blocked
system.dcache.blocked::no_mshrs                     0                       # number of cycles access was blocked
system.dcache.blocked::no_targets                   0                       # number of cycles access was blocked
system.dcache.avg_blocked_cycles::no_mshrs          nan                       # average number of cycles each access was blocked
system.dcache.avg_blocked_cycles::no_targets          nan                       # average number of cycles each access was blocked
system.dcache.writebacks::.writebacks            5019                       # number of writebacks
system.dcache.writebacks::total                  5019                       # number of writebacks
system.dcache.demand_mshr_misses::.cpu.data         6874                       # number of demand (read+write) MSHR misses
system.dcache.demand_mshr_misses::total          6874                       # number of demand (read+write) MSHR misses
[...]
system.dcache.tags.age_task_id_blocks_1024::2          149                       # Occupied blocks per task id
system.dcache.tags.age_task_id_blocks_1024::3           91                       # Occupied blocks per task id
system.dcache.tags.occ_task_id_percent::1024            1                       # Percentage of cache occupancy per task id
system.dcache.tags.tag_accesses               2234243                       # Number of tag accesses
system.dcache.tags.data_accesses              2234243                       # Number of data accesses
system.dcache.tags.power_state.pwrStateResidencyTicks::UNDEFINED  29750338000                       # Cumulative time (in ticks) in various power states
system.cache_large.blocked_cycles::no_mshrs            0                       # number of cycles access was blocked
system.cache_large.blocked_cycles::no_targets            0                       # number of cycles access was blocked
system.cache_large.blocked::no_mshrs                0                       # number of cycles access was blocked
system.cache_large.blocked::no_targets              0                       # number of cycles access was blocked
system.cache_large.avg_blocked_cycles::no_mshrs          nan                       # average number of cycles each access was blocked
system.cache_large.avg_blocked_cycles::no_targets          nan                       # average number of cycles each access was blocked
system.cache_large.replacements                     0                       # number of replacements
system.cache_large.power_state.pwrStateResidencyTicks::UNDEFINED  29750338000                       # Cumulative time (in ticks) in various power states
system.cache_large.tags.tagsinuse                   0                       # Cycle average of tags in use
system.cache_large.tags.total_refs                  0                       # Total number of references to valid blocks.
system.cache_large.tags.sampled_refs                0                       # Sample count of references to valid blocks.
system.cache_large.tags.avg_refs                  nan                       # Average number of references to valid blocks.
system.cache_large.tags.warmup_cycle                0                       # Cycle when the warmup percentage was hit.
system.cache_large.tags.tag_accesses                0                       # Number of tag accesses
system.cache_large.tags.data_accesses               0                       # Number of data accesses
system.cache_large.tags.power_state.pwrStateResidencyTicks::UNDEFINED  29750338000                       # Cumulative time (in ticks) in various power states
system.l2cache.demand_hits::.cpu.inst          139924                       # number of demand (read+write) hits
system.l2cache.demand_hits::.cpu.data           17521                       # number of demand (read+write) hits
system.l2cache.demand_hits::total              157445                       # number of demand (read+write) hits
system.l2cache.overall_hits::.cpu.inst         139924                       # number of overall hits
system.l2cache.overall_hits::.cpu.data          17521                       # number of overall hits
system.l2cache.overall_hits::total             157445                       # number of overall hits
system.l2cache.demand_misses::.cpu.inst        105281                       # number of demand (read+write) misses
system.l2cache.demand_misses::.cpu.data         17554                       # number of demand (read+write) misses
system.l2cache.demand_misses::total            122835                       # number of demand (read+write) misses
system.l2cache.overall_misses::.cpu.inst       105281                       # number of overall misses
system.l2cache.overall_misses::.cpu.data        17554                       # number of overall misses
system.l2cache.overall_misses::total           122835                       # number of overall misses
system.l2cache.demand_miss_latency::.cpu.inst   2694664000                       # number of demand (read+write) miss cycles
system.l2cache.demand_miss_latency::.cpu.data    958375000                       # number of demand (read+write) miss cycles
system.l2cache.demand_miss_latency::total   3653039000                       # number of demand (read+write) miss cycles
system.l2cache.overall_miss_latency::.cpu.inst   2694664000                       # number of overall miss cycles
system.l2cache.overall_miss_latency::.cpu.data    958375000                       # number of overall miss cycles
system.l2cache.overall_miss_latency::total   3653039000                       # number of overall miss cycles
system.l2cache.demand_accesses::.cpu.inst       245205                       # number of demand (read+write) accesses
system.l2cache.demand_accesses::.cpu.data        35075                       # number of demand (read+write) accesses
system.l2cache.demand_accesses::total          280280                       # number of demand (read+write) accesses
system.l2cache.overall_accesses::.cpu.inst       245205                       # number of overall (read+write) accesses
system.l2cache.overall_accesses::.cpu.data        35075                       # number of overall (read+write) accesses
system.l2cache.overall_accesses::total         280280                       # number of overall (read+write) accesses
system.l2cache.demand_miss_rate::.cpu.inst     0.429359                       # miss rate for demand accesses
system.l2cache.demand_miss_rate::.cpu.data     0.500470                       # miss rate for demand accesses
system.l2cache.demand_miss_rate::total       0.438258                       # miss rate for demand accesses
system.l2cache.overall_miss_rate::.cpu.inst     0.429359                       # miss rate for overall accesses
system.l2cache.overall_miss_rate::.cpu.data     0.500470                       # miss rate for overall accesses
system.l2cache.overall_miss_rate::total      0.438258                       # miss rate for overall accesses
system.l2cache.demand_avg_miss_latency::.cpu.inst 25594.969653                       # average overall miss latency
system.l2cache.demand_avg_miss_latency::.cpu.data 54595.818617                       # average overall miss latency
system.l2cache.demand_avg_miss_latency::total 29739.398380                       # average overall miss latency
system.l2cache.overall_avg_miss_latency::.cpu.inst 25594.969653                       # average overall miss latency
system.l2cache.overall_avg_miss_latency::.cpu.data 54595.818617                       # average overall miss latency
system.l2cache.overall_avg_miss_latency::total 29739.398380                       # average overall miss latency
system.l2cache.blocked_cycles::no_mshrs             0                       # number of cycles access was blocked
system.l2cache.blocked_cycles::no_targets            0                       # number of cycles access was blocked
system.l2cache.blocked::no_mshrs                    0                       # number of cycles access was blocked
system.l2cache.blocked::no_targets                  0                       # number of cycles access was blocked
system.l2cache.avg_blocked_cycles::no_mshrs          nan                       # average number of cycles each access was blocked
system.l2cache.avg_blocked_cycles::no_targets          nan                       # average number of cycles each access was blocked
system.l2cache.writebacks::.writebacks          13331                       # number of writebacks
system.l2cache.writebacks::total                13331                       # number of writebacks
system.l2cache.demand_mshr_misses::.cpu.inst       105281                       # number of demand (read+write) MSHR misses
system.l2cache.demand_mshr_misses::.cpu.data        17554                       # number of demand (read+write) MSHR misses
system.l2cache.demand_mshr_misses::total       122835                       # number of demand (read+write) MSHR misses
system.l2cache.overall_mshr_misses::.cpu.inst       105281                       # number of overall MSHR misses
system.l2cache.overall_mshr_misses::.cpu.data        17554                       # number of overall MSHR misses
system.l2cache.overall_mshr_misses::total       122835                       # number of overall MSHR misses
system.l2cache.demand_mshr_miss_latency::.cpu.inst   2484102000                       # number of demand (read+write) MSHR miss cycles
system.l2cache.demand_mshr_miss_latency::.cpu.data    923267000                       # number of demand (read+write) MSHR miss cycles
system.l2cache.demand_mshr_miss_latency::total   3407369000                       # number of demand (read+write) MSHR miss cycles
system.l2cache.overall_mshr_miss_latency::.cpu.inst   2484102000                       # number of overall MSHR miss cycles
system.l2cache.overall_mshr_miss_latency::.cpu.data    923267000                       # number of overall MSHR miss cycles
system.l2cache.overall_mshr_miss_latency::total   3407369000                       # number of overall MSHR miss cycles
system.l2cache.demand_mshr_miss_rate::.cpu.inst     0.429359                       # mshr miss rate for demand accesses
system.l2cache.demand_mshr_miss_rate::.cpu.data     0.500470                       # mshr miss rate for demand accesses
system.l2cache.demand_mshr_miss_rate::total     0.438258                       # mshr miss rate for demand accesses
system.l2cache.overall_mshr_miss_rate::.cpu.inst     0.429359                       # mshr miss rate for overall accesses
system.l2cache.overall_mshr_miss_rate::.cpu.data     0.500470                       # mshr miss rate for overall accesses
system.l2cache.overall_mshr_miss_rate::total     0.438258                       # mshr miss rate for overall accesses
system.l2cache.demand_avg_mshr_miss_latency::.cpu.inst 23594.969653                       # average overall mshr miss latency
system.l2cache.demand_avg_mshr_miss_latency::.cpu.data 52595.818617                       # average overall mshr miss latency
system.l2cache.demand_avg_mshr_miss_latency::total 27739.398380                       # average overall mshr miss latency
system.l2cache.overall_avg_mshr_miss_latency::.cpu.inst 23594.969653                       # average overall mshr miss latency
system.l2cache.overall_avg_mshr_miss_latency::.cpu.data 52595.818617                       # average overall mshr miss latency
system.l2cache.overall_avg_mshr_miss_latency::total 27739.398380                       # average overall mshr miss latency
system.l2cache.replacements                    131750                       # number of replacements
system.l2cache.ReadReq_hits::.cpu.inst         139924                       # number of ReadReq hits
system.l2cache.ReadReq_hits::.cpu.data          17521                       # number of ReadReq hits
system.l2cache.ReadReq_hits::total             157445                       # number of ReadReq hits
system.l2cache.ReadReq_misses::.cpu.inst       105281                       # number of ReadReq misses
system.l2cache.ReadReq_misses::.cpu.data        17554                       # number of ReadReq misses
system.l2cache.ReadReq_misses::total           122835                       # number of ReadReq misses
system.l2cache.ReadReq_miss_latency::.cpu.inst   2694664000                       # number of ReadReq miss cycles
system.l2cache.ReadReq_miss_latency::.cpu.data    958375000                       # number of ReadReq miss cycles
system.l2cache.ReadReq_miss_latency::total   3653039000                       # number of ReadReq miss cycles
system.l2cache.ReadReq_accesses::.cpu.inst       245205                       # number of ReadReq accesses(hits+misses)
system.l2cache.ReadReq_accesses::.cpu.data        35075                       # number of ReadReq accesses(hits+misses)
system.l2cache.ReadReq_accesses::total         280280                       # number of ReadReq accesses(hits+misses)
system.l2cache.ReadReq_miss_rate::.cpu.inst     0.429359                       # miss rate for ReadReq accesses
system.l2cache.ReadReq_miss_rate::.cpu.data     0.500470                       # miss rate for ReadReq accesses
system.l2cache.ReadReq_miss_rate::total      0.438258                       # miss rate for ReadReq accesses
system.l2cache.ReadReq_avg_miss_latency::.cpu.inst 25594.969653                       # average ReadReq miss latency
system.l2cache.ReadReq_avg_miss_latency::.cpu.data 54595.818617                       # average ReadReq miss latency
system.l2cache.ReadReq_avg_miss_latency::total 29739.398380                       # average ReadReq miss latency
system.l2cache.ReadReq_mshr_misses::.cpu.inst       105281                       # number of ReadReq MSHR misses
system.l2cache.ReadReq_mshr_misses::.cpu.data        17554                       # number of ReadReq MSHR misses
system.l2cache.ReadReq_mshr_misses::total       122835                       # number of ReadReq MSHR misses
system.l2cache.ReadReq_mshr_miss_latency::.cpu.inst   2484102000                       # number of ReadReq MSHR miss cycles
system.l2cache.ReadReq_mshr_miss_latency::.cpu.data    923267000                       # number of ReadReq MSHR miss cycles
system.l2cache.ReadReq_mshr_miss_latency::total   3407369000                       # number of ReadReq MSHR miss cycles
system.l2cache.ReadReq_mshr_miss_rate::.cpu.inst     0.429359                       # mshr miss rate for ReadReq accesses
system.l2cache.ReadReq_mshr_miss_rate::.cpu.data     0.500470                       # mshr miss rate for ReadReq accesses
system.l2cache.ReadReq_mshr_miss_rate::total     0.438258                       # mshr miss rate for ReadReq accesses
system.l2cache.ReadReq_avg_mshr_miss_latency::.cpu.inst 23594.969653                       # average ReadReq mshr miss latency
system.l2cache.ReadReq_avg_mshr_miss_latency::.cpu.data 52595.818617                       # average ReadReq mshr miss latency
system.l2cache.ReadReq_avg_mshr_miss_latency::total 27739.398380                       # average ReadReq mshr miss latency
system.l2cache.WritebackDirty_hits::.writebacks        19646                       # number of WritebackDirty hits
system.l2cache.WritebackDirty_hits::total        19646                       # number of WritebackDirty hits
system.l2cache.WritebackDirty_accesses::.writebacks        19646                       # number of WritebackDirty accesses(hits+misses)
system.l2cache.WritebackDirty_accesses::total        19646                       # number of WritebackDirty accesses(hits+misses)
system.l2cache.power_state.pwrStateResidencyTicks::UNDEFINED  29750338000                       # Cumulative time (in ticks) in various power states
system.l2cache.tags.tagsinuse              510.564195                       # Cycle average of tags in use
system.l2cache.tags.total_refs                 299926                       # Total number of references to valid blocks.
system.l2cache.tags.sampled_refs               132262                       # Sample count of references to valid blocks.
system.l2cache.tags.avg_refs                 2.267666                       # Average number of references to valid blocks.
system.l2cache.tags.warmup_cycle                78000                       # Cycle when the warmup percentage was hit.
system.l2cache.tags.occ_blocks::.writebacks    98.281059                       # Average occupied blocks per requestor
system.l2cache.tags.occ_blocks::.cpu.inst   210.145359                       # Average occupied blocks per requestor
system.l2cache.tags.occ_blocks::.cpu.data   202.137777                       # Average occupied blocks per requestor
system.l2cache.tags.occ_percent::.writebacks     0.191955                       # Average percentage of cache occupancy
system.l2cache.tags.occ_percent::.cpu.inst     0.410440                       # Average percentage of cache occupancy
system.l2cache.tags.occ_percent::.cpu.data     0.394800                       # Average percentage of cache occupancy
system.l2cache.tags.occ_percent::total       0.997196                       # Average percentage of cache occupancy
system.l2cache.tags.occ_task_id_blocks::1024          512                       # Occupied blocks per task id
system.l2cache.tags.age_task_id_blocks_1024::0            8                       # Occupied blocks per task id
system.l2cache.tags.age_task_id_blocks_1024::1           45                       # Occupied blocks per task id
system.l2cache.tags.age_task_id_blocks_1024::2          206                       # Occupied blocks per task id
system.l2cache.tags.age_task_id_blocks_1024::3          253                       # Occupied blocks per task id
system.l2cache.tags.occ_task_id_percent::1024            1                       # Percentage of cache occupancy per task id
system.l2cache.tags.tag_accesses               432188                       # Number of tag accesses
system.l2cache.tags.data_accesses              432188                       # Number of data accesses
system.l2cache.tags.power_state.pwrStateResidencyTicks::UNDEFINED  29750338000                       # Cumulative time (in ticks) in various power states
system.l2bar.trans_dist::ReadReq               280280                       # Transaction distribution
system.l2bar.trans_dist::ReadResp              280280                       # Transaction distribution
system.l2bar.trans_dist::WritebackDirty         19646                       # Transaction distribution
system.l2bar.pkt_count_system.dcache.mem_side::system.l2cache.cpu_side        89796                       # Packet count per connected master and slave (bytes)
system.l2bar.pkt_count_system.icache.mem_side::system.l2cache.cpu_side       490410                       # Packet count per connected master and slave (bytes)
system.l2bar.pkt_count::total                  580206                       # Packet count per connected master and slave (bytes)
system.l2bar.pkt_size_system.dcache.mem_side::system.l2cache.cpu_side      3502144                       # Cumulative packet size per connected master and slave (bytes)
system.l2bar.pkt_size_system.icache.mem_side::system.l2cache.cpu_side     15693120                       # Cumulative packet size per connected master and slave (bytes)
system.l2bar.pkt_size::total                 19195264                       # Cumulative packet size per connected master and slave (bytes)
system.l2bar.respLayer1.occupancy          1226025000                       # Layer occupancy (ticks)
system.l2bar.respLayer1.utilization               4.1                       # Layer utilization (%)
system.l2bar.reqLayer0.occupancy            378510000                       # Layer occupancy (ticks)
system.l2bar.reqLayer0.utilization                1.3                       # Layer utilization (%)
system.l2bar.respLayer0.occupancy           175375000                       # Layer occupancy (ticks)
system.l2bar.respLayer0.utilization               0.6                       # Layer utilization (%)
system.l2bar.power_state.pwrStateResidencyTicks::UNDEFINED  29750338000                       # Cumulative time (in ticks) in various power states
system.cpu.dtb.walker.power_state.pwrStateResidencyTicks::UNDEFINED  29750338000                       # Cumulative time (in ticks) in various power states
system.cpu.interrupts.clk_domain.clock          16000                       # Clock period in ticks
system.cpu.itb.walker.power_state.pwrStateResidencyTicks::UNDEFINED  29750338000                       # Cumulative time (in ticks) in various power states
system.cpu.power_state.numTransitions               1                       # Number of power state transitions
system.cpu.power_state.pwrStateResidencyTicks::ON  29750338000                       # Cumulative time (in ticks) in various power states

---------- End Simulation Statistics   ----------
