
---------- Begin Simulation Statistics ----------
final_tick                               164482933000                       # Number of ticks from beginning of simulation (restored from checkpoints and never reset)
host_inst_rate                                 220176                       # Simulator instruction rate (inst/s)
host_mem_usage                                 794908                       # Number of bytes of host memory used
host_op_rate                                   433215                       # Simulator op (including micro ops) rate (op/s)
host_seconds                                     9.08                       # Real time elapsed on the host
host_tick_rate                            18107245855                       # Simulator tick rate (ticks/s)
sim_freq                                 1000000000000                       # Frequency of simulated ticks
sim_insts                                     2000001                       # Number of instructions simulated
sim_ops                                       3935230                       # Number of ops (including micro ops) simulated
sim_seconds                                  0.164483                       # Number of seconds simulated
sim_ticks                                164482933000                       # Number of ticks simulated
system.cachebus.snoop_filter.hit_multi_requests            0                       # Number of requests hitting in the snoop filter with multiple (>1) holders of the requested data.
system.cachebus.snoop_filter.hit_multi_snoops            0                       # Number of snoops hitting in the snoop filter with multiple (>1) holders of the requested data.
system.cachebus.snoop_filter.hit_single_requests            0                       # Number of requests hitting in the snoop filter with a single holder of the requested data.
system.cachebus.snoop_filter.hit_single_snoops            0                       # Number of snoops hitting in the snoop filter with a single holder of the requested data.
system.cachebus.snoop_filter.tot_requests            0                       # Total number of requests made to the snoop filter.
system.cachebus.snoop_filter.tot_snoops             0                       # Total number of snoops made to the snoop filter.
system.cpu.Branches                            454570                       # Number of branches fetched
system.cpu.committedInsts                     2000001                       # Number of instructions committed
system.cpu.committedOps                       3935230                       # Number of ops (including micro ops) committed
system.cpu.dtb.rdAccesses                      429996                       # TLB accesses on read requests
system.cpu.dtb.rdMisses                           447                       # TLB misses on read requests
system.cpu.dtb.wrAccesses                      299868                       # TLB accesses on write requests
system.cpu.dtb.wrMisses                           326                       # TLB misses on write requests
system.cpu.idle_fraction                            0                       # Percentage of idle cycles
system.cpu.itb.rdAccesses                           0                       # TLB accesses on read requests
system.cpu.itb.rdMisses                             0                       # TLB misses on read requests
system.cpu.itb.wrAccesses                     2614375                       # TLB accesses on write requests
system.cpu.itb.wrMisses                           267                       # TLB misses on write requests
system.cpu.not_idle_fraction                        1                       # Percentage of non-idle cycles
system.cpu.numCycles                        164482933                       # number of cpu cycles simulated
system.cpu.numWorkItemsCompleted                    0                       # number of work items this cpu completed
system.cpu.numWorkItemsStarted                      0                       # number of work items this cpu started
system.cpu.num_busy_cycles                  164482933                       # Number of busy cycles
system.cpu.num_cc_register_reads              2552510                       # number of times the CC registers were read
system.cpu.num_cc_register_writes             1309931                       # number of times the CC registers were written
system.cpu.num_conditional_control_insts       346019                       # number of instructions that are conditional controls
system.cpu.num_fp_alu_accesses                 113743                       # Number of float alu accesses
system.cpu.num_fp_insts                        113743                       # number of float instructions
system.cpu.num_fp_register_reads               172193                       # number of times the floating registers were read
system.cpu.num_fp_register_writes               72152                       # number of times the floating registers were written
system.cpu.num_func_calls                       66415                       # number of times a function call or return occured
system.cpu.num_idle_cycles                          0                       # Number of idle cycles
system.cpu.num_int_alu_accesses               3847496                       # Number of integer alu accesses
system.cpu.num_int_insts                      3847496                       # number of integer instructions
system.cpu.num_int_register_reads             7343505                       # number of times the integer registers were read
system.cpu.num_int_register_writes            3114249                       # number of times the integer registers were written
system.cpu.num_load_insts                      429091                       # Number of load instructions
system.cpu.num_mem_refs                        728941                       # number of memory refs
system.cpu.num_store_insts                     299850                       # Number of store instructions
system.cpu.num_vec_alu_accesses                     0                       # Number of vector alu accesses
system.cpu.num_vec_insts                            0                       # number of vector instructions
system.cpu.num_vec_register_reads                   0                       # number of times the vector registers were read
system.cpu.num_vec_register_writes                  0                       # number of times the vector registers were written
system.cpu.op_class::No_OpClass                 26430      0.67%      0.67% # Class of executed instruction
system.cpu.op_class::IntAlu                   3099998     78.77%     79.44% # Class of executed instruction
system.cpu.op_class::IntMult                     4899      0.12%     79.57% # Class of executed instruction
system.cpu.op_class::IntDiv                      6670      0.17%     79.74% # Class of executed instruction
system.cpu.op_class::FloatAdd                    1279      0.03%     79.77% # Class of executed instruction
system.cpu.op_class::FloatCmp                       0      0.00%     79.77% # Class of executed instruction
system.cpu.op_class::FloatCvt                       0      0.00%     79.77% # Class of executed instruction
system.cpu.op_class::FloatMult                      0      0.00%     79.77% # Class of executed instruction
system.cpu.op_class::FloatMultAcc                   0      0.00%     79.77% # Class of executed instruction
system.cpu.op_class::FloatDiv                       0      0.00%     79.77% # Class of executed instruction
system.cpu.op_class::FloatMisc                      0      0.00%     79.77% # Class of executed instruction
system.cpu.op_class::FloatSqrt                      0      0.00%     79.77% # Class of executed instruction
system.cpu.op_class::SimdAdd                     1870      0.05%     79.82% # Class of executed instruction
system.cpu.op_class::SimdAddAcc                     0      0.00%     79.82% # Class of executed instruction
system.cpu.op_class::SimdAlu                    32279      0.82%     80.64% # Class of executed instruction
system.cpu.op_class::SimdCmp                       50      0.00%     80.64% # Class of executed instruction
system.cpu.op_class::SimdCvt                    13096      0.33%     80.97% # Class of executed instruction
system.cpu.op_class::SimdMisc                   19054      0.48%     81.46% # Class of executed instruction
system.cpu.op_class::SimdMult                       0      0.00%     81.46% # Class of executed instruction
system.cpu.op_class::SimdMultAcc                    0      0.00%     81.46% # Class of executed instruction
system.cpu.op_class::SimdShift                    771      0.02%     81.48% # Class of executed instruction
system.cpu.op_class::SimdShiftAcc                   0      0.00%     81.48% # Class of executed instruction
system.cpu.op_class::SimdDiv                        0      0.00%     81.48% # Class of executed instruction
system.cpu.op_class::SimdSqrt                       0      0.00%     81.48% # Class of executed instruction
system.cpu.op_class::SimdFloatAdd                   4      0.00%     81.48% # Class of executed instruction
system.cpu.op_class::SimdFloatAlu                   0      0.00%     81.48% # Class of executed instruction
system.cpu.op_class::SimdFloatCmp                   2      0.00%     81.48% # Class of executed instruction
system.cpu.op_class::SimdFloatCvt                  21      0.00%     81.48% # Class of executed instruction
system.cpu.op_class::SimdFloatDiv                   1      0.00%     81.48% # Class of executed instruction
system.cpu.op_class::SimdFloatMisc                  0      0.00%     81.48% # Class of executed instruction
system.cpu.op_class::SimdFloatMult                 12      0.00%     81.48% # Class of executed instruction
system.cpu.op_class::SimdFloatMultAcc               0      0.00%     81.48% # Class of executed instruction
system.cpu.op_class::SimdFloatSqrt                  0      0.00%     81.48% # Class of executed instruction
system.cpu.op_class::SimdReduceAdd                  0      0.00%     81.48% # Class of executed instruction
system.cpu.op_class::SimdReduceAlu                  0      0.00%     81.48% # Class of executed instruction
system.cpu.op_class::SimdReduceCmp                  0      0.00%     81.48% # Class of executed instruction
system.cpu.op_class::SimdFloatReduceAdd             0      0.00%     81.48% # Class of executed instruction
system.cpu.op_class::SimdFloatReduceCmp             0      0.00%     81.48% # Class of executed instruction
system.cpu.op_class::SimdAes                        0      0.00%     81.48% # Class of executed instruction
system.cpu.op_class::SimdAesMix                     0      0.00%     81.48% # Class of executed instruction
system.cpu.op_class::SimdSha1Hash                   0      0.00%     81.48% # Class of executed instruction
system.cpu.op_class::SimdSha1Hash2                  0      0.00%     81.48% # Class of executed instruction
system.cpu.op_class::SimdSha256Hash                 0      0.00%     81.48% # Class of executed instruction
system.cpu.op_class::SimdSha256Hash2                0      0.00%     81.48% # Class of executed instruction
system.cpu.op_class::SimdShaSigma2                  0      0.00%     81.48% # Class of executed instruction
system.cpu.op_class::SimdShaSigma3                  0      0.00%     81.48% # Class of executed instruction
system.cpu.op_class::SimdPredAlu                    0      0.00%     81.48% # Class of executed instruction
system.cpu.op_class::MemRead                   416594     10.59%     92.06% # Class of executed instruction
system.cpu.op_class::MemWrite                  268994      6.84%     98.90% # Class of executed instruction
system.cpu.op_class::FloatMemRead               12497      0.32%     99.22% # Class of executed instruction
system.cpu.op_class::FloatMemWrite              30856      0.78%    100.00% # Class of executed instruction
system.cpu.op_class::IprAccess                      0      0.00%    100.00% # Class of executed instruction
system.cpu.op_class::InstPrefetch                   0      0.00%    100.00% # Class of executed instruction
system.cpu.op_class::total                    3935377                       # Class of executed instruction
system.cpu.workload.numSyscalls                    32                       # Number of system calls
system.membus.snoop_filter.hit_multi_requests            0                       # Number of requests hitting in the snoop filter with multiple (>1) holders of the requested data.
system.membus.snoop_filter.hit_multi_snoops            0                       # Number of snoops hitting in the snoop filter with multiple (>1) holders of the requested data.
system.membus.snoop_filter.hit_single_requests            0                       # Number of requests hitting in the snoop filter with a single holder of the requested data.
system.membus.snoop_filter.hit_single_snoops            0                       # Number of snoops hitting in the snoop filter with a single holder of the requested data.
system.membus.snoop_filter.tot_requests             0                       # Total number of requests made to the snoop filter.
system.membus.snoop_filter.tot_snoops               0                       # Total number of snoops made to the snoop filter.
system.membus.trans_dist::ReadReq             3043199                       # Transaction distribution
system.membus.trans_dist::ReadResp            3043198                       # Transaction distribution
system.membus.trans_dist::WriteReq             299752                       # Transaction distribution
system.membus.trans_dist::WriteResp            299752                       # Transaction distribution
system.membus.trans_dist::SoftPFReq              1141                       # Transaction distribution
system.membus.trans_dist::SoftPFResp             1141                       # Transaction distribution
system.membus.pkt_count_system.cpu.icache_port::system.mem_ctrl.port      5228749                       # Packet count per connected master and slave (bytes)
system.membus.pkt_count_system.cpu.icache_port::total      5228749                       # Packet count per connected master and slave (bytes)
system.membus.pkt_count_system.memobj.mem_side::system.mem_ctrl.port      1459434                       # Packet count per connected master and slave (bytes)
system.membus.pkt_count_system.memobj.mem_side::total      1459434                       # Packet count per connected master and slave (bytes)
system.membus.pkt_count::total                6688183                       # Packet count per connected master and slave (bytes)
system.membus.pkt_size_system.cpu.icache_port::system.mem_ctrl.port     20914992                       # Cumulative packet size per connected master and slave (bytes)
system.membus.pkt_size_system.cpu.icache_port::total     20914992                       # Cumulative packet size per connected master and slave (bytes)
system.membus.pkt_size_system.memobj.mem_side::system.mem_ctrl.port      4918541                       # Cumulative packet size per connected master and slave (bytes)
system.membus.pkt_size_system.memobj.mem_side::total      4918541                       # Cumulative packet size per connected master and slave (bytes)
system.membus.pkt_size::total                25833533                       # Cumulative packet size per connected master and slave (bytes)
system.membus.snoops                                0                       # Total snoops (count)
system.membus.snoopTraffic                          0                       # Total snoop traffic (bytes)
system.membus.snoop_fanout::samples           3344092                       # Request fanout histogram
system.membus.snoop_fanout::mean                    0                       # Request fanout histogram
system.membus.snoop_fanout::stdev                   0                       # Request fanout histogram
system.membus.snoop_fanout::underflows              0      0.00%      0.00% # Request fanout histogram
system.membus.snoop_fanout::0                 3344092    100.00%    100.00% # Request fanout histogram
system.membus.snoop_fanout::1                       0      0.00%    100.00% # Request fanout histogram
system.membus.snoop_fanout::overflows               0      0.00%    100.00% # Request fanout histogram
system.membus.snoop_fanout::min_value               0                       # Request fanout histogram
system.membus.snoop_fanout::max_value               0                       # Request fanout histogram
system.membus.snoop_fanout::total             3344092                       # Request fanout histogram
system.membus.reqLayer2.occupancy          3643844000                       # Layer occupancy (ticks)
system.membus.reqLayer2.utilization               2.2                       # Layer utilization (%)
system.membus.respLayer1.occupancy         1293002000                       # Layer occupancy (ticks)
system.membus.respLayer1.utilization              0.8                       # Layer utilization (%)
system.membus.respLayer0.occupancy         5932340000                       # Layer occupancy (ticks)
system.membus.respLayer0.utilization              3.6                       # Layer utilization (%)
system.membus.power_state.pwrStateResidencyTicks::UNDEFINED 164482933000                       # Cumulative time (in ticks) in various power states
system.mem_ctrl.bytes_read::.cpu.inst        20914992                       # Number of bytes read from this memory
system.mem_ctrl.bytes_read::.cpu.data         2815794                       # Number of bytes read from this memory
system.mem_ctrl.bytes_read::total            23730786                       # Number of bytes read from this memory
system.mem_ctrl.bytes_inst_read::.cpu.inst     20914992                       # Number of instructions bytes read from this memory
system.mem_ctrl.bytes_inst_read::total       20914992                       # Number of instructions bytes read from this memory
system.mem_ctrl.bytes_written::.cpu.data      2102747                       # Number of bytes written to this memory
system.mem_ctrl.bytes_written::total          2102747                       # Number of bytes written to this memory
system.mem_ctrl.num_reads::.cpu.inst          2614374                       # Number of read requests responded to by this memory
system.mem_ctrl.num_reads::.cpu.data           429965                       # Number of read requests responded to by this memory
system.mem_ctrl.num_reads::total              3044339                       # Number of read requests responded to by this memory
system.mem_ctrl.num_writes::.cpu.data          299752                       # Number of write requests responded to by this memory
system.mem_ctrl.num_writes::total              299752                       # Number of write requests responded to by this memory
system.mem_ctrl.bw_read::.cpu.inst          127156001                       # Total read bandwidth from this memory (bytes/s)
system.mem_ctrl.bw_read::.cpu.data           17119065                       # Total read bandwidth from this memory (bytes/s)
system.mem_ctrl.bw_read::total              144275066                       # Total read bandwidth from this memory (bytes/s)
system.mem_ctrl.bw_inst_read::.cpu.inst     127156001                       # Instruction read bandwidth from this memory (bytes/s)
system.mem_ctrl.bw_inst_read::total         127156001                       # Instruction read bandwidth from this memory (bytes/s)
system.mem_ctrl.bw_write::.cpu.data          12783983                       # Write bandwidth from this memory (bytes/s)
system.mem_ctrl.bw_write::total              12783983                       # Write bandwidth from this memory (bytes/s)
system.mem_ctrl.bw_total::.cpu.inst         127156001                       # Total bandwidth to/from this memory (bytes/s)
system.mem_ctrl.bw_total::.cpu.data          29903048                       # Total bandwidth to/from this memory (bytes/s)
system.mem_ctrl.bw_total::total             157059049                       # Total bandwidth to/from this memory (bytes/s)
system.mem_ctrl.avgPriority_.cpu.inst::samples   2614375.00                       # Average QoS priority value for accepted requests
system.mem_ctrl.avgPriority_.cpu.data::samples    403569.00                       # Average QoS priority value for accepted requests
system.mem_ctrl.priorityMinLatency       0.000000018750                       # per QoS priority minimum request to response latency (s)
system.mem_ctrl.priorityMaxLatency       0.026417694750                       # per QoS priority maximum request to response latency (s)
system.mem_ctrl.numReadWriteTurnArounds           966                       # Number of turnarounds from READ to WRITE
system.mem_ctrl.numWriteReadTurnArounds           966                       # Number of turnarounds from WRITE to READ
system.mem_ctrl.numStayReadState              6345404                       # Number of times bus staying in READ state
system.mem_ctrl.numStayWriteState               14548                       # Number of times bus staying in WRITE state
system.mem_ctrl.readReqs                      3044340                       # Number of read requests accepted
system.mem_ctrl.writeReqs                      299752                       # Number of write requests accepted
system.mem_ctrl.readBursts                    3044340                       # Number of DRAM read bursts, including those serviced by the write queue
system.mem_ctrl.writeBursts                    299752                       # Number of DRAM write bursts, including those merged in the write queue
system.mem_ctrl.servicedByWrQ                   41924                       # Number of DRAM read bursts serviced by the write queue
system.mem_ctrl.mergedWrBursts                 284224                       # Number of DRAM write bursts merged with an existing one
system.mem_ctrl.neitherReadNorWriteReqs             0                       # Number of requests that are neither read nor write
system.mem_ctrl.perBankRdBursts::0             204240                       # Per bank write bursts
system.mem_ctrl.perBankRdBursts::1             445320                       # Per bank write bursts
system.mem_ctrl.perBankRdBursts::2              14711                       # Per bank write bursts
system.mem_ctrl.perBankRdBursts::3              68093                       # Per bank write bursts
system.mem_ctrl.perBankRdBursts::4             581307                       # Per bank write bursts
system.mem_ctrl.perBankRdBursts::5              88138                       # Per bank write bursts
system.mem_ctrl.perBankRdBursts::6              11422                       # Per bank write bursts
system.mem_ctrl.perBankRdBursts::7             271411                       # Per bank write bursts
system.mem_ctrl.perBankRdBursts::8              53933                       # Per bank write bursts
system.mem_ctrl.perBankRdBursts::9             117567                       # Per bank write bursts
system.mem_ctrl.perBankRdBursts::10             91880                       # Per bank write bursts
system.mem_ctrl.perBankRdBursts::11            279592                       # Per bank write bursts
system.mem_ctrl.perBankRdBursts::12            376842                       # Per bank write bursts
system.mem_ctrl.perBankRdBursts::13             17829                       # Per bank write bursts
system.mem_ctrl.perBankRdBursts::14            240605                       # Per bank write bursts
system.mem_ctrl.perBankRdBursts::15            139526                       # Per bank write bursts
system.mem_ctrl.perBankWrBursts::0                480                       # Per bank write bursts
system.mem_ctrl.perBankWrBursts::1                439                       # Per bank write bursts
system.mem_ctrl.perBankWrBursts::2                317                       # Per bank write bursts
system.mem_ctrl.perBankWrBursts::3                785                       # Per bank write bursts
system.mem_ctrl.perBankWrBursts::4               1377                       # Per bank write bursts
system.mem_ctrl.perBankWrBursts::5                415                       # Per bank write bursts
system.mem_ctrl.perBankWrBursts::6                645                       # Per bank write bursts
system.mem_ctrl.perBankWrBursts::7               4308                       # Per bank write bursts
system.mem_ctrl.perBankWrBursts::8               1171                       # Per bank write bursts
system.mem_ctrl.perBankWrBursts::9                522                       # Per bank write bursts
system.mem_ctrl.perBankWrBursts::10               737                       # Per bank write bursts
system.mem_ctrl.perBankWrBursts::11               366                       # Per bank write bursts
system.mem_ctrl.perBankWrBursts::12               720                       # Per bank write bursts
system.mem_ctrl.perBankWrBursts::13              1065                       # Per bank write bursts
system.mem_ctrl.perBankWrBursts::14              1308                       # Per bank write bursts
system.mem_ctrl.perBankWrBursts::15               845                       # Per bank write bursts
system.mem_ctrl.avgRdQLen                        1.00                       # Average read queue length when enqueuing
system.mem_ctrl.avgWrQLen                       26.59                       # Average write queue length when enqueuing
system.mem_ctrl.totQLat                   10201169750                       # Total ticks spent queuing
system.mem_ctrl.totBusLat                 15012080000                       # Total ticks spent in databus transfers
system.mem_ctrl.totMemAccLat              66496469750                       # Total ticks spent from burst creation until serviced by the DRAM
system.mem_ctrl.avgQLat                       3397.65                       # Average queueing delay per DRAM burst
system.mem_ctrl.avgBusLat                     5000.00                       # Average bus latency per DRAM burst
system.mem_ctrl.avgMemAccLat                 22147.65                       # Average memory access latency per DRAM burst
system.mem_ctrl.numRdRetry                          0                       # Number of times read queue was full causing retry
system.mem_ctrl.numWrRetry                          0                       # Number of times write queue was full causing retry
system.mem_ctrl.readRowHits                   2689532                       # Number of row buffer hits during reads
system.mem_ctrl.writeRowHits                    12324                       # Number of row buffer hits during writes
system.mem_ctrl.readRowHitRate                  89.58                       # Row buffer hit rate for reads
system.mem_ctrl.writeRowHitRate                 79.37                       # Row buffer hit rate for writes
system.mem_ctrl.readPktSize::0                  46432                       # Read request sizes (log2)
system.mem_ctrl.readPktSize::1                  16602                       # Read request sizes (log2)
system.mem_ctrl.readPktSize::2                  49423                       # Read request sizes (log2)
system.mem_ctrl.readPktSize::3                2931883                       # Read request sizes (log2)
system.mem_ctrl.readPktSize::4                      0                       # Read request sizes (log2)
system.mem_ctrl.readPktSize::5                      0                       # Read request sizes (log2)
system.mem_ctrl.readPktSize::6                      0                       # Read request sizes (log2)
system.mem_ctrl.writePktSize::0                 11886                       # Write request sizes (log2)
system.mem_ctrl.writePktSize::1                  5273                       # Write request sizes (log2)
system.mem_ctrl.writePktSize::2                 45099                       # Write request sizes (log2)
system.mem_ctrl.writePktSize::3                237494                       # Write request sizes (log2)
system.mem_ctrl.writePktSize::4                     0                       # Write request sizes (log2)
system.mem_ctrl.writePktSize::5                     0                       # Write request sizes (log2)
system.mem_ctrl.writePktSize::6                     0                       # Write request sizes (log2)
system.mem_ctrl.rdQLenPdf::0                  3001511                       # What read queue length does an incoming req see
system.mem_ctrl.rdQLenPdf::1                      905                       # What read queue length does an incoming req see
system.mem_ctrl.rdQLenPdf::2                        0                       # What read queue length does an incoming req see
system.mem_ctrl.rdQLenPdf::3                        0                       # What read queue length does an incoming req see
system.mem_ctrl.rdQLenPdf::4                        0                       # What read queue length does an incoming req see
system.mem_ctrl.rdQLenPdf::5                        0                       # What read queue length does an incoming req see
system.mem_ctrl.rdQLenPdf::6                        0                       # What read queue length does an incoming req see
system.mem_ctrl.rdQLenPdf::7                        0                       # What read queue length does an incoming req see
system.mem_ctrl.rdQLenPdf::8                        0                       # What read queue length does an incoming req see
system.mem_ctrl.rdQLenPdf::9                        0                       # What read queue length does an incoming req see
system.mem_ctrl.rdQLenPdf::10                       0                       # What read queue length does an incoming req see
system.mem_ctrl.rdQLenPdf::11                       0                       # What read queue length does an incoming req see
system.mem_ctrl.rdQLenPdf::12                       0                       # What read queue length does an incoming req see
system.mem_ctrl.rdQLenPdf::13                       0                       # What read queue length does an incoming req see
system.mem_ctrl.rdQLenPdf::14                       0                       # What read queue length does an incoming req see
system.mem_ctrl.rdQLenPdf::15                       0                       # What read queue length does an incoming req see
system.mem_ctrl.rdQLenPdf::16                       0                       # What read queue length does an incoming req see
system.mem_ctrl.rdQLenPdf::17                       0                       # What read queue length does an incoming req see
system.mem_ctrl.rdQLenPdf::18                       0                       # What read queue length does an incoming req see
system.mem_ctrl.rdQLenPdf::19                       0                       # What read queue length does an incoming req see
system.mem_ctrl.rdQLenPdf::20                       0                       # What read queue length does an incoming req see
system.mem_ctrl.rdQLenPdf::21                       0                       # What read queue length does an incoming req see
system.mem_ctrl.rdQLenPdf::22                       0                       # What read queue length does an incoming req see
system.mem_ctrl.rdQLenPdf::23                       0                       # What read queue length does an incoming req see
system.mem_ctrl.rdQLenPdf::24                       0                       # What read queue length does an incoming req see
system.mem_ctrl.rdQLenPdf::25                       0                       # What read queue length does an incoming req see
system.mem_ctrl.rdQLenPdf::26                       0                       # What read queue length does an incoming req see
system.mem_ctrl.rdQLenPdf::27                       0                       # What read queue length does an incoming req see
system.mem_ctrl.rdQLenPdf::28                       0                       # What read queue length does an incoming req see
system.mem_ctrl.rdQLenPdf::29                       0                       # What read queue length does an incoming req see
system.mem_ctrl.rdQLenPdf::30                       0                       # What read queue length does an incoming req see
system.mem_ctrl.rdQLenPdf::31                       0                       # What read queue length does an incoming req see
system.mem_ctrl.wrQLenPdf::0                        1                       # What write queue length does an incoming req see
system.mem_ctrl.wrQLenPdf::1                        1                       # What write queue length does an incoming req see
system.mem_ctrl.wrQLenPdf::2                        1                       # What write queue length does an incoming req see
system.mem_ctrl.wrQLenPdf::3                        1                       # What write queue length does an incoming req see
system.mem_ctrl.wrQLenPdf::4                        1                       # What write queue length does an incoming req see
system.mem_ctrl.wrQLenPdf::5                        1                       # What write queue length does an incoming req see
system.mem_ctrl.wrQLenPdf::6                        1                       # What write queue length does an incoming req see
system.mem_ctrl.wrQLenPdf::7                        1                       # What write queue length does an incoming req see
system.mem_ctrl.wrQLenPdf::8                        1                       # What write queue length does an incoming req see
system.mem_ctrl.wrQLenPdf::9                        1                       # What write queue length does an incoming req see
system.mem_ctrl.wrQLenPdf::10                       1                       # What write queue length does an incoming req see
system.mem_ctrl.wrQLenPdf::11                       1                       # What write queue length does an incoming req see
system.mem_ctrl.wrQLenPdf::12                       1                       # What write queue length does an incoming req see
system.mem_ctrl.wrQLenPdf::13                       1                       # What write queue length does an incoming req see
system.mem_ctrl.wrQLenPdf::14                       1                       # What write queue length does an incoming req see
system.mem_ctrl.wrQLenPdf::15                      20                       # What write queue length does an incoming req see
system.mem_ctrl.wrQLenPdf::16                      21                       # What write queue length does an incoming req see
system.mem_ctrl.wrQLenPdf::17                     960                       # What write queue length does an incoming req see
system.mem_ctrl.wrQLenPdf::18                     967                       # What write queue length does an incoming req see
system.mem_ctrl.wrQLenPdf::19                     968                       # What write queue length does an incoming req see
system.mem_ctrl.wrQLenPdf::20                     968                       # What write queue length does an incoming req see
system.mem_ctrl.wrQLenPdf::21                     968                       # What write queue length does an incoming req see
system.mem_ctrl.wrQLenPdf::22                     967                       # What write queue length does an incoming req see
system.mem_ctrl.wrQLenPdf::23                     973                       # What write queue length does an incoming req see
system.mem_ctrl.wrQLenPdf::24                     968                       # What write queue length does an incoming req see
system.mem_ctrl.wrQLenPdf::25                     967                       # What write queue length does an incoming req see
system.mem_ctrl.wrQLenPdf::26                     969                       # What write queue length does an incoming req see
system.mem_ctrl.wrQLenPdf::27                     967                       # What write queue length does an incoming req see
system.mem_ctrl.wrQLenPdf::28                     966                       # What write queue length does an incoming req see
system.mem_ctrl.wrQLenPdf::29                     966                       # What write queue length does an incoming req see
system.mem_ctrl.wrQLenPdf::30                     966                       # What write queue length does an incoming req see
system.mem_ctrl.wrQLenPdf::31                     966                       # What write queue length does an incoming req see
system.mem_ctrl.wrQLenPdf::32                     966                       # What write queue length does an incoming req see
system.mem_ctrl.wrQLenPdf::33                       0                       # What write queue length does an incoming req see
system.mem_ctrl.wrQLenPdf::34                       0                       # What write queue length does an incoming req see
system.mem_ctrl.wrQLenPdf::35                       0                       # What write queue length does an incoming req see
system.mem_ctrl.wrQLenPdf::36                       0                       # What write queue length does an incoming req see
system.mem_ctrl.wrQLenPdf::37                       0                       # What write queue length does an incoming req see
system.mem_ctrl.wrQLenPdf::38                       0                       # What write queue length does an incoming req see
system.mem_ctrl.wrQLenPdf::39                       0                       # What write queue length does an incoming req see
system.mem_ctrl.wrQLenPdf::40                       0                       # What write queue length does an incoming req see
system.mem_ctrl.wrQLenPdf::41                       0                       # What write queue length does an incoming req see
system.mem_ctrl.wrQLenPdf::42                       0                       # What write queue length does an incoming req see
system.mem_ctrl.wrQLenPdf::43                       0                       # What write queue length does an incoming req see
system.mem_ctrl.wrQLenPdf::44                       0                       # What write queue length does an incoming req see
system.mem_ctrl.wrQLenPdf::45                       0                       # What write queue length does an incoming req see
system.mem_ctrl.wrQLenPdf::46                       0                       # What write queue length does an incoming req see
system.mem_ctrl.wrQLenPdf::47                       0                       # What write queue length does an incoming req see
system.mem_ctrl.wrQLenPdf::48                       0                       # What write queue length does an incoming req see
system.mem_ctrl.wrQLenPdf::49                       0                       # What write queue length does an incoming req see
system.mem_ctrl.wrQLenPdf::50                       0                       # What write queue length does an incoming req see
system.mem_ctrl.wrQLenPdf::51                       0                       # What write queue length does an incoming req see
system.mem_ctrl.wrQLenPdf::52                       0                       # What write queue length does an incoming req see
system.mem_ctrl.wrQLenPdf::53                       0                       # What write queue length does an incoming req see
system.mem_ctrl.wrQLenPdf::54                       0                       # What write queue length does an incoming req see
system.mem_ctrl.wrQLenPdf::55                       0                       # What write queue length does an incoming req see
system.mem_ctrl.wrQLenPdf::56                       0                       # What write queue length does an incoming req see
system.mem_ctrl.wrQLenPdf::57                       0                       # What write queue length does an incoming req see
system.mem_ctrl.wrQLenPdf::58                       0                       # What write queue length does an incoming req see
system.mem_ctrl.wrQLenPdf::59                       0                       # What write queue length does an incoming req see
system.mem_ctrl.wrQLenPdf::60                       0                       # What write queue length does an incoming req see
system.mem_ctrl.wrQLenPdf::61                       0                       # What write queue length does an incoming req see
system.mem_ctrl.wrQLenPdf::62                       0                       # What write queue length does an incoming req see
system.mem_ctrl.wrQLenPdf::63                       0                       # What write queue length does an incoming req see
system.mem_ctrl.bytesPerActivate::samples       316051                       # Bytes accessed per row activation
system.mem_ctrl.bytesPerActivate::mean     611.115143                       # Bytes accessed per row activation
system.mem_ctrl.bytesPerActivate::gmean    388.945081                       # Bytes accessed per row activation
system.mem_ctrl.bytesPerActivate::stdev    418.348681                       # Bytes accessed per row activation
system.mem_ctrl.bytesPerActivate::0-127         63911     20.22%     20.22% # Bytes accessed per row activation
system.mem_ctrl.bytesPerActivate::128-255        40605     12.85%     33.07% # Bytes accessed per row activation
system.mem_ctrl.bytesPerActivate::256-383        17679      5.59%     38.66% # Bytes accessed per row activation
system.mem_ctrl.bytesPerActivate::384-511        12890      4.08%     42.74% # Bytes accessed per row activation
system.mem_ctrl.bytesPerActivate::512-639        13143      4.16%     46.90% # Bytes accessed per row activation
system.mem_ctrl.bytesPerActivate::640-767         8714      2.76%     49.66% # Bytes accessed per row activation
system.mem_ctrl.bytesPerActivate::768-895        10929      3.46%     53.12% # Bytes accessed per row activation
system.mem_ctrl.bytesPerActivate::896-1023         8979      2.84%     55.96% # Bytes accessed per row activation
system.mem_ctrl.bytesPerActivate::1024-1151       139201     44.04%    100.00% # Bytes accessed per row activation
system.mem_ctrl.bytesPerActivate::total        316051                       # Bytes accessed per row activation
system.mem_ctrl.rdPerTurnAround::samples          966                       # Reads before turning the bus around for writes
system.mem_ctrl.rdPerTurnAround::mean     3106.448240                       # Reads before turning the bus around for writes
system.mem_ctrl.rdPerTurnAround::stdev    8689.528419                       # Reads before turning the bus around for writes
system.mem_ctrl.rdPerTurnAround::0-4095           866     89.65%     89.65% # Reads before turning the bus around for writes
system.mem_ctrl.rdPerTurnAround::4096-8191           59      6.11%     95.76% # Reads before turning the bus around for writes
system.mem_ctrl.rdPerTurnAround::8192-12287            3      0.31%     96.07% # Reads before turning the bus around for writes
system.mem_ctrl.rdPerTurnAround::12288-16383            7      0.72%     96.79% # Reads before turning the bus around for writes
system.mem_ctrl.rdPerTurnAround::16384-20479            8      0.83%     97.62% # Reads before turning the bus around for writes
system.mem_ctrl.rdPerTurnAround::20480-24575            3      0.31%     97.93% # Reads before turning the bus around for writes
system.mem_ctrl.rdPerTurnAround::24576-28671            1      0.10%     98.03% # Reads before turning the bus around for writes
system.mem_ctrl.rdPerTurnAround::32768-36863            2      0.21%     98.24% # Reads before turning the bus around for writes
system.mem_ctrl.rdPerTurnAround::36864-40959            2      0.21%     98.45% # Reads before turning the bus around for writes
system.mem_ctrl.rdPerTurnAround::45056-49151            2      0.21%     98.65% # Reads before turning the bus around for writes
system.mem_ctrl.rdPerTurnAround::57344-61439            5      0.52%     99.17% # Reads before turning the bus around for writes
system.mem_ctrl.rdPerTurnAround::61440-65535            1      0.10%     99.28% # Reads before turning the bus around for writes
system.mem_ctrl.rdPerTurnAround::65536-69631            1      0.10%     99.38% # Reads before turning the bus around for writes
system.mem_ctrl.rdPerTurnAround::69632-73727            1      0.10%     99.48% # Reads before turning the bus around for writes
system.mem_ctrl.rdPerTurnAround::73728-77823            2      0.21%     99.69% # Reads before turning the bus around for writes
system.mem_ctrl.rdPerTurnAround::77824-81919            3      0.31%    100.00% # Reads before turning the bus around for writes
system.mem_ctrl.rdPerTurnAround::total            966                       # Reads before turning the bus around for writes
system.mem_ctrl.wrPerTurnAround::samples          966                       # Writes before turning the bus around for reads
system.mem_ctrl.wrPerTurnAround::mean       16.045549                       # Writes before turning the bus around for reads
system.mem_ctrl.wrPerTurnAround::gmean      16.042316                       # Writes before turning the bus around for reads
system.mem_ctrl.wrPerTurnAround::stdev       0.340673                       # Writes before turning the bus around for reads
system.mem_ctrl.wrPerTurnAround::16               947     98.03%     98.03% # Writes before turning the bus around for reads
system.mem_ctrl.wrPerTurnAround::18                16      1.66%     99.69% # Writes before turning the bus around for reads
system.mem_ctrl.wrPerTurnAround::19                 1      0.10%     99.79% # Writes before turning the bus around for reads
system.mem_ctrl.wrPerTurnAround::20                 1      0.10%     99.90% # Writes before turning the bus around for reads
system.mem_ctrl.wrPerTurnAround::21                 1      0.10%    100.00% # Writes before turning the bus around for reads
system.mem_ctrl.wrPerTurnAround::total            966                       # Writes before turning the bus around for reads
system.mem_ctrl.bytesReadDRAM               192154624                       # Total number of bytes read from DRAM
system.mem_ctrl.bytesReadWrQ                  2683136                       # Total number of bytes read from write queue
system.mem_ctrl.bytesWritten                   992000                       # Total number of bytes written to DRAM
system.mem_ctrl.bytesReadSys                 23730794                       # Total read bytes from the system interface side
system.mem_ctrl.bytesWrittenSys               2102747                       # Total written bytes from the system interface side
system.mem_ctrl.avgRdBW                       1168.23                       # Average DRAM read bandwidth in MiByte/s
system.mem_ctrl.avgWrBW                          6.03                       # Average achieved write bandwidth in MiByte/s
system.mem_ctrl.avgRdBWSys                     144.28                       # Average system read bandwidth in MiByte/s
system.mem_ctrl.avgWrBWSys                      12.78                       # Average system write bandwidth in MiByte/s
system.mem_ctrl.peakBW                       12800.00                       # Theoretical peak bandwidth in MiByte/s
system.mem_ctrl.busUtil                          9.17                       # Data bus utilization in percentage
system.mem_ctrl.busUtilRead                      9.13                       # Data bus utilization in percentage for reads
system.mem_ctrl.busUtilWrite                     0.05                       # Data bus utilization in percentage for writes
system.mem_ctrl.totGap                   164482856000                       # Total gap between requests
system.mem_ctrl.avgGap                       49186.10                       # Average gap between requests
system.mem_ctrl.masterReadBytes::.cpu.inst     20915000                       # Per-master bytes read from memory
system.mem_ctrl.masterReadBytes::.cpu.data      2516911                       # Per-master bytes read from memory
system.mem_ctrl.masterWriteBytes::.cpu.data       107262                       # Per-master bytes write to memory
system.mem_ctrl.masterReadRate::.cpu.inst 127156049.679634541273                       # Per-master bytes read from memory rate (Bytes/sec)
system.mem_ctrl.masterReadRate::.cpu.data 15301958.410481408238                       # Per-master bytes read from memory rate (Bytes/sec)
system.mem_ctrl.masterWriteRate::.cpu.data 652116.289779438754                       # Per-master bytes write to memory rate (Bytes/sec)
system.mem_ctrl.masterReadAccesses::.cpu.inst      2614375                       # Per-master read serviced memory accesses
system.mem_ctrl.masterReadAccesses::.cpu.data       429965                       # Per-master read serviced memory accesses
system.mem_ctrl.masterWriteAccesses::.cpu.data       299752                       # Per-master write serviced memory accesses
system.mem_ctrl.masterReadTotalLat::.cpu.inst  56571114750                       # Per-master read total memory access latency
system.mem_ctrl.masterReadTotalLat::.cpu.data   9925355000                       # Per-master read total memory access latency
system.mem_ctrl.masterWriteTotalLat::.cpu.data 4322058075500                       # Per-master write total memory access latency
system.mem_ctrl.masterReadAvgLat::.cpu.inst     21638.49                       # Per-master read average memory access latency
system.mem_ctrl.masterReadAvgLat::.cpu.data     23084.10                       # Per-master read average memory access latency
system.mem_ctrl.masterWriteAvgLat::.cpu.data  14418779.78                       # Per-master write average memory access latency
system.mem_ctrl.pageHitRate                     89.53                       # Row buffer hit rate, read and write combined
system.mem_ctrl.rank1.actEnergy            1030723260                       # Energy for activate commands per rank (pJ)
system.mem_ctrl.rank1.preEnergy             547831020                       # Energy for precharge commands per rank (pJ)
system.mem_ctrl.rank1.readEnergy           9408906360                       # Energy for read commands per rank (pJ)
system.mem_ctrl.rank1.writeEnergy            35151480                       # Energy for write commands per rank (pJ)
system.mem_ctrl.rank1.refreshEnergy      12983655360.000002                       # Energy for refresh commands per rank (pJ)
system.mem_ctrl.rank1.actBackEnergy       64193055720                       # Energy for active background per rank (pJ)
system.mem_ctrl.rank1.preBackEnergy        9104136480                       # Energy for precharge background per rank (pJ)
system.mem_ctrl.rank1.actPowerDownEnergy            0                       # Energy for active power-down per rank (pJ)
system.mem_ctrl.rank1.prePowerDownEnergy            0                       # Energy for precharge power-down per rank (pJ)
system.mem_ctrl.rank1.selfRefreshEnergy             0                       # Energy for self refresh per rank (pJ)
system.mem_ctrl.rank1.totalEnergy         97303459680                       # Total energy per rank (pJ)
system.mem_ctrl.rank1.averagePower         591.571769                       # Core power per rank (mW)
system.mem_ctrl.rank1.totalIdleTime                 0                       # Total Idle time Per DRAM Rank
system.mem_ctrl.rank1.memoryStateTime::IDLE  23038696250                       # Time in different power states
system.mem_ctrl.rank1.memoryStateTime::REF   5492240000                       # Time in different power states
system.mem_ctrl.rank1.memoryStateTime::SREF            0                       # Time in different power states
system.mem_ctrl.rank1.memoryStateTime::PRE_PDN            0                       # Time in different power states
system.mem_ctrl.rank1.memoryStateTime::ACT 135951996750                       # Time in different power states
system.mem_ctrl.rank1.memoryStateTime::ACT_PDN            0                       # Time in different power states
system.mem_ctrl.rank0.actEnergy            1225945140                       # Energy for activate commands per rank (pJ)
system.mem_ctrl.rank0.preEnergy             651582525                       # Energy for precharge commands per rank (pJ)
system.mem_ctrl.rank0.readEnergy          12028343880                       # Energy for read commands per rank (pJ)
system.mem_ctrl.rank0.writeEnergy            45758520                       # Energy for write commands per rank (pJ)
system.mem_ctrl.rank0.refreshEnergy      12983655360.000002                       # Energy for refresh commands per rank (pJ)
system.mem_ctrl.rank0.actBackEnergy       69770791860                       # Energy for active background per rank (pJ)
system.mem_ctrl.rank0.preBackEnergy        4407095520                       # Energy for precharge background per rank (pJ)
system.mem_ctrl.rank0.actPowerDownEnergy            0                       # Energy for active power-down per rank (pJ)
system.mem_ctrl.rank0.prePowerDownEnergy            0                       # Energy for precharge power-down per rank (pJ)
system.mem_ctrl.rank0.selfRefreshEnergy             0                       # Energy for self refresh per rank (pJ)
system.mem_ctrl.rank0.totalEnergy        101113172805                       # Total energy per rank (pJ)
system.mem_ctrl.rank0.averagePower         614.733523                       # Core power per rank (mW)
system.mem_ctrl.rank0.totalIdleTime                 0                       # Total Idle time Per DRAM Rank
system.mem_ctrl.rank0.memoryStateTime::IDLE  10657339750                       # Time in different power states
system.mem_ctrl.rank0.memoryStateTime::REF   5492240000                       # Time in different power states
system.mem_ctrl.rank0.memoryStateTime::SREF            0                       # Time in different power states
system.mem_ctrl.rank0.memoryStateTime::PRE_PDN            0                       # Time in different power states
system.mem_ctrl.rank0.memoryStateTime::ACT 148333353250                       # Time in different power states
system.mem_ctrl.rank0.memoryStateTime::ACT_PDN            0                       # Time in different power states
system.mem_ctrl.power_state.pwrStateResidencyTicks::UNDEFINED 164482933000                       # Cumulative time (in ticks) in various power states
system.cache.blocked_cycles::no_mshrs               0                       # number of cycles access was blocked
system.cache.blocked_cycles::no_targets             0                       # number of cycles access was blocked
system.cache.blocked::no_mshrs                      0                       # number of cycles access was blocked
system.cache.blocked::no_targets                    0                       # number of cycles access was blocked
system.cache.avg_blocked_cycles::no_mshrs          nan                       # average number of cycles each access was blocked
system.cache.avg_blocked_cycles::no_targets          nan                       # average number of cycles each access was blocked
system.cache.replacements                           0                       # number of replacements
system.cache.power_state.pwrStateResidencyTicks::UNDEFINED 164482933000                       # Cumulative time (in ticks) in various power states
system.cache.tags.tagsinuse                         0                       # Cycle average of tags in use
system.cache.tags.total_refs                        0                       # Total number of references to valid blocks.
system.cache.tags.sampled_refs                      0                       # Sample count of references to valid blocks.
system.cache.tags.avg_refs                        nan                       # Average number of references to valid blocks.
system.cache.tags.warmup_cycle                      0                       # Cycle when the warmup percentage was hit.
system.cache.tags.tag_accesses                      0                       # Number of tag accesses
system.cache.tags.data_accesses                     0                       # Number of data accesses
system.cache.tags.power_state.pwrStateResidencyTicks::UNDEFINED 164482933000                       # Cumulative time (in ticks) in various power states
system.clk_domain.clock                          1000                       # Clock period in ticks
system.clk_domain.voltage_domain.voltage            1                       # Voltage in Volts
system.cachebus.snoops                              0                       # Total snoops (count)
system.cachebus.snoopTraffic                        0                       # Total snoop traffic (bytes)
system.cachebus.snoop_fanout::samples               0                       # Request fanout histogram
system.cachebus.snoop_fanout::mean                nan                       # Request fanout histogram
system.cachebus.snoop_fanout::stdev               nan                       # Request fanout histogram
system.cachebus.snoop_fanout::underflows            0                       # Request fanout histogram
system.cachebus.snoop_fanout::0                     0                       # Request fanout histogram
system.cachebus.snoop_fanout::overflows             0                       # Request fanout histogram
system.cachebus.snoop_fanout::min_value             0                       # Request fanout histogram
system.cachebus.snoop_fanout::max_value             0                       # Request fanout histogram
system.cachebus.snoop_fanout::total                 0                       # Request fanout histogram
system.cachebus.power_state.pwrStateResidencyTicks::UNDEFINED 164482933000                       # Cumulative time (in ticks) in various power states
system.cpu.dtb.walker.power_state.pwrStateResidencyTicks::UNDEFINED 164482933000                       # Cumulative time (in ticks) in various power states
system.cpu.interrupts.clk_domain.clock          16000                       # Clock period in ticks
system.cpu.itb.walker.power_state.pwrStateResidencyTicks::UNDEFINED 164482933000                       # Cumulative time (in ticks) in various power states
system.cpu.power_state.numTransitions               1                       # Number of power state transitions
system.cpu.power_state.pwrStateResidencyTicks::ON 164482933000                       # Cumulative time (in ticks) in various power states

---------- End Simulation Statistics   ----------
