
---------- Begin Simulation Statistics ----------
final_tick                                 3961676000                       # Number of ticks from beginning of simulation (restored from checkpoints and never reset)
host_inst_rate                                  96290                       # Simulator instruction rate (inst/s)
host_mem_usage                               34269828                       # Number of bytes of host memory used
host_op_rate                                   182749                       # Simulator op (including micro ops) rate (op/s)
host_seconds                                    10.39                       # Real time elapsed on the host
host_tick_rate                              381450292                       # Simulator tick rate (ticks/s)
sim_freq                                 1000000000000                       # Frequency of simulated ticks
sim_insts                                     1000024                       # Number of instructions simulated
sim_ops                                       1897984                       # Number of ops (including micro ops) simulated
sim_seconds                                  0.003962                       # Number of seconds simulated
sim_ticks                                  3961676000                       # Number of ticks simulated
system.cpu.Branches                            223657                       # Number of branches fetched
system.cpu.committedInsts                     1000024                       # Number of instructions committed
system.cpu.committedOps                       1897984                       # Number of ops (including micro ops) committed
system.cpu.dtb.rdAccesses                      224662                       # TLB accesses on read requests
system.cpu.dtb.rdMisses                            81                       # TLB misses on read requests
system.cpu.dtb.wrAccesses                      144211                       # TLB accesses on write requests
system.cpu.dtb.wrMisses                            45                       # TLB misses on write requests
system.cpu.idle_fraction                            0                       # Percentage of idle cycles
system.cpu.itb.rdAccesses                           0                       # TLB accesses on read requests
system.cpu.itb.rdMisses                             0                       # TLB misses on read requests
system.cpu.itb.wrAccesses                     1309643                       # TLB accesses on write requests
system.cpu.itb.wrMisses                           177                       # TLB misses on write requests
system.cpu.not_idle_fraction                        1                       # Percentage of non-idle cycles
system.cpu.numCycles                          3961665                       # number of cpu cycles simulated
system.cpu.numWorkItemsCompleted                    0                       # number of work items this cpu completed
system.cpu.numWorkItemsStarted                      0                       # number of work items this cpu started
system.cpu.num_busy_cycles                    3961665                       # Number of busy cycles
system.cpu.num_cc_register_reads              1153911                       # number of times the CC registers were read
system.cpu.num_cc_register_writes              616673                       # number of times the CC registers were written
system.cpu.num_conditional_control_insts       165985                       # number of instructions that are conditional controls
system.cpu.num_fp_alu_accesses                  24024                       # Number of float alu accesses
system.cpu.num_fp_insts                         24024                       # number of float instructions
system.cpu.num_fp_register_reads                38683                       # number of times the floating registers were read
system.cpu.num_fp_register_writes               19045                       # number of times the floating registers were written
system.cpu.num_func_calls                       38890                       # number of times a function call or return occured
system.cpu.num_idle_cycles                          0                       # Number of idle cycles
system.cpu.num_int_alu_accesses               1874791                       # Number of integer alu accesses
system.cpu.num_int_insts                      1874791                       # number of integer instructions
system.cpu.num_int_register_reads             3674306                       # number of times the integer registers were read
system.cpu.num_int_register_writes            1506926                       # number of times the integer registers were written
system.cpu.num_load_insts                      224364                       # Number of load instructions
system.cpu.num_mem_refs                        368510                       # number of memory refs
system.cpu.num_store_insts                     144146                       # Number of store instructions
system.cpu.num_vec_alu_accesses                     0                       # Number of vector alu accesses
system.cpu.num_vec_insts                            0                       # number of vector instructions
system.cpu.num_vec_register_reads                   0                       # number of times the vector registers were read
system.cpu.num_vec_register_writes                  0                       # number of times the vector registers were written
system.cpu.op_class::No_OpClass                  7478      0.39%      0.39% # Class of executed instruction
system.cpu.op_class::IntAlu                   1502910     79.18%     79.58% # Class of executed instruction
system.cpu.op_class::IntMult                      314      0.02%     79.59% # Class of executed instruction
system.cpu.op_class::IntDiv                       217      0.01%     79.61% # Class of executed instruction
system.cpu.op_class::FloatAdd                      77      0.00%     79.61% # Class of executed instruction
system.cpu.op_class::FloatCmp                       0      0.00%     79.61% # Class of executed instruction
system.cpu.op_class::FloatCvt                       0      0.00%     79.61% # Class of executed instruction
system.cpu.op_class::FloatMult                      0      0.00%     79.61% # Class of executed instruction
system.cpu.op_class::FloatMultAcc                   0      0.00%     79.61% # Class of executed instruction
system.cpu.op_class::FloatDiv                       0      0.00%     79.61% # Class of executed instruction
system.cpu.op_class::FloatMisc                      0      0.00%     79.61% # Class of executed instruction
system.cpu.op_class::FloatSqrt                      0      0.00%     79.61% # Class of executed instruction
system.cpu.op_class::SimdAdd                       16      0.00%     79.61% # Class of executed instruction
system.cpu.op_class::SimdAddAcc                     0      0.00%     79.61% # Class of executed instruction
system.cpu.op_class::SimdAlu                     9070      0.48%     80.09% # Class of executed instruction
system.cpu.op_class::SimdCmp                      138      0.01%     80.10% # Class of executed instruction
system.cpu.op_class::SimdCvt                     4544      0.24%     80.34% # Class of executed instruction
system.cpu.op_class::SimdMisc                    4704      0.25%     80.58% # Class of executed instruction
system.cpu.op_class::SimdMult                       0      0.00%     80.58% # Class of executed instruction
system.cpu.op_class::SimdMultAcc                    0      0.00%     80.58% # Class of executed instruction
system.cpu.op_class::SimdShift                      0      0.00%     80.58% # Class of executed instruction
system.cpu.op_class::SimdShiftAcc                   0      0.00%     80.58% # Class of executed instruction
system.cpu.op_class::SimdDiv                        0      0.00%     80.58% # Class of executed instruction
system.cpu.op_class::SimdSqrt                       0      0.00%     80.58% # Class of executed instruction
system.cpu.op_class::SimdFloatAdd                   0      0.00%     80.58% # Class of executed instruction
system.cpu.op_class::SimdFloatAlu                   0      0.00%     80.58% # Class of executed instruction
system.cpu.op_class::SimdFloatCmp                   0      0.00%     80.58% # Class of executed instruction
system.cpu.op_class::SimdFloatCvt                  21      0.00%     80.58% # Class of executed instruction
system.cpu.op_class::SimdFloatDiv                   0      0.00%     80.58% # Class of executed instruction
system.cpu.op_class::SimdFloatMisc                  0      0.00%     80.58% # Class of executed instruction
system.cpu.op_class::SimdFloatMult                  0      0.00%     80.58% # Class of executed instruction
system.cpu.op_class::SimdFloatMultAcc               0      0.00%     80.58% # Class of executed instruction
system.cpu.op_class::SimdFloatSqrt                  0      0.00%     80.58% # Class of executed instruction
system.cpu.op_class::SimdReduceAdd                  0      0.00%     80.58% # Class of executed instruction
system.cpu.op_class::SimdReduceAlu                  0      0.00%     80.58% # Class of executed instruction
system.cpu.op_class::SimdReduceCmp                  0      0.00%     80.58% # Class of executed instruction
system.cpu.op_class::SimdFloatReduceAdd             0      0.00%     80.58% # Class of executed instruction
system.cpu.op_class::SimdFloatReduceCmp             0      0.00%     80.58% # Class of executed instruction
system.cpu.op_class::SimdAes                        0      0.00%     80.58% # Class of executed instruction
system.cpu.op_class::SimdAesMix                     0      0.00%     80.58% # Class of executed instruction
system.cpu.op_class::SimdSha1Hash                   0      0.00%     80.58% # Class of executed instruction
system.cpu.op_class::SimdSha1Hash2                  0      0.00%     80.58% # Class of executed instruction
system.cpu.op_class::SimdSha256Hash                 0      0.00%     80.58% # Class of executed instruction
system.cpu.op_class::SimdSha256Hash2                0      0.00%     80.58% # Class of executed instruction
system.cpu.op_class::SimdShaSigma2                  0      0.00%     80.58% # Class of executed instruction
system.cpu.op_class::SimdShaSigma3                  0      0.00%     80.58% # Class of executed instruction
system.cpu.op_class::SimdPredAlu                    0      0.00%     80.58% # Class of executed instruction
system.cpu.op_class::MemRead                   219921     11.59%     92.17% # Class of executed instruction
system.cpu.op_class::MemWrite                  143441      7.56%     99.73% # Class of executed instruction
system.cpu.op_class::FloatMemRead                4443      0.23%     99.96% # Class of executed instruction
system.cpu.op_class::FloatMemWrite                705      0.04%    100.00% # Class of executed instruction
system.cpu.op_class::IprAccess                      0      0.00%    100.00% # Class of executed instruction
system.cpu.op_class::InstPrefetch                   0      0.00%    100.00% # Class of executed instruction
system.cpu.op_class::total                    1897999                       # Class of executed instruction
system.cpu.workload.numSyscalls                    29                       # Number of system calls
system.dynamic_cache.flushTicks                     0                       # Ticks taken to flush
system.dynamic_cache.numFlushes                     0                       # Number of Flushes Taken
system.cache_small.demand_hits::.cpu.inst         7280                       # number of demand (read+write) hits
system.cache_small.demand_hits::.cpu.data         1857                       # number of demand (read+write) hits
system.cache_small.demand_hits::total            9137                       # number of demand (read+write) hits
system.cache_small.overall_hits::.cpu.inst         7280                       # number of overall hits
system.cache_small.overall_hits::.cpu.data         1857                       # number of overall hits
system.cache_small.overall_hits::total           9137                       # number of overall hits
system.cache_small.demand_misses::.cpu.inst         1951                       # number of demand (read+write) misses
system.cache_small.demand_misses::.cpu.data         1851                       # number of demand (read+write) misses
system.cache_small.demand_misses::total          3802                       # number of demand (read+write) misses
system.cache_small.overall_misses::.cpu.inst         1951                       # number of overall misses
system.cache_small.overall_misses::.cpu.data         1851                       # number of overall misses
system.cache_small.overall_misses::total         3802                       # number of overall misses
system.cache_small.demand_miss_latency::.cpu.inst    117411000                       # number of demand (read+write) miss cycles
system.cache_small.demand_miss_latency::.cpu.data    115749000                       # number of demand (read+write) miss cycles
system.cache_small.demand_miss_latency::total    233160000                       # number of demand (read+write) miss cycles
system.cache_small.overall_miss_latency::.cpu.inst    117411000                       # number of overall miss cycles
system.cache_small.overall_miss_latency::.cpu.data    115749000                       # number of overall miss cycles
system.cache_small.overall_miss_latency::total    233160000                       # number of overall miss cycles
system.cache_small.demand_accesses::.cpu.inst         9231                       # number of demand (read+write) accesses
system.cache_small.demand_accesses::.cpu.data         3708                       # number of demand (read+write) accesses
system.cache_small.demand_accesses::total        12939                       # number of demand (read+write) accesses
system.cache_small.overall_accesses::.cpu.inst         9231                       # number of overall (read+write) accesses
system.cache_small.overall_accesses::.cpu.data         3708                       # number of overall (read+write) accesses
system.cache_small.overall_accesses::total        12939                       # number of overall (read+write) accesses
system.cache_small.demand_miss_rate::.cpu.inst     0.211353                       # miss rate for demand accesses
system.cache_small.demand_miss_rate::.cpu.data     0.499191                       # miss rate for demand accesses
system.cache_small.demand_miss_rate::total     0.293840                       # miss rate for demand accesses
system.cache_small.overall_miss_rate::.cpu.inst     0.211353                       # miss rate for overall accesses
system.cache_small.overall_miss_rate::.cpu.data     0.499191                       # miss rate for overall accesses
system.cache_small.overall_miss_rate::total     0.293840                       # miss rate for overall accesses
system.cache_small.demand_avg_miss_latency::.cpu.inst 60179.907740                       # average overall miss latency
system.cache_small.demand_avg_miss_latency::.cpu.data 62533.225284                       # average overall miss latency
system.cache_small.demand_avg_miss_latency::total 61325.618096                       # average overall miss latency
system.cache_small.overall_avg_miss_latency::.cpu.inst 60179.907740                       # average overall miss latency
system.cache_small.overall_avg_miss_latency::.cpu.data 62533.225284                       # average overall miss latency
system.cache_small.overall_avg_miss_latency::total 61325.618096                       # average overall miss latency
system.cache_small.blocked_cycles::no_mshrs            0                       # number of cycles access was blocked
system.cache_small.blocked_cycles::no_targets            0                       # number of cycles access was blocked
system.cache_small.blocked::no_mshrs                0                       # number of cycles access was blocked
system.cache_small.blocked::no_targets              0                       # number of cycles access was blocked
system.cache_small.avg_blocked_cycles::no_mshrs          nan                       # average number of cycles each access was blocked
system.cache_small.avg_blocked_cycles::no_targets          nan                       # average number of cycles each access was blocked
system.cache_small.writebacks::.writebacks           72                       # number of writebacks
system.cache_small.writebacks::total               72                       # number of writebacks
system.cache_small.demand_mshr_misses::.cpu.inst         1951                       # number of demand (read+write) MSHR misses
system.cache_small.demand_mshr_misses::.cpu.data         1851                       # number of demand (read+write) MSHR misses
system.cache_small.demand_mshr_misses::total         3802                       # number of demand (read+write) MSHR misses
system.cache_small.overall_mshr_misses::.cpu.inst         1951                       # number of overall MSHR misses
system.cache_small.overall_mshr_misses::.cpu.data         1851                       # number of overall MSHR misses
system.cache_small.overall_mshr_misses::total         3802                       # number of overall MSHR misses
system.cache_small.demand_mshr_miss_latency::.cpu.inst    113509000                       # number of demand (read+write) MSHR miss cycles
system.cache_small.demand_mshr_miss_latency::.cpu.data    112047000                       # number of demand (read+write) MSHR miss cycles
system.cache_small.demand_mshr_miss_latency::total    225556000                       # number of demand (read+write) MSHR miss cycles
system.cache_small.overall_mshr_miss_latency::.cpu.inst    113509000                       # number of overall MSHR miss cycles
system.cache_small.overall_mshr_miss_latency::.cpu.data    112047000                       # number of overall MSHR miss cycles
system.cache_small.overall_mshr_miss_latency::total    225556000                       # number of overall MSHR miss cycles
system.cache_small.demand_mshr_miss_rate::.cpu.inst     0.211353                       # mshr miss rate for demand accesses
system.cache_small.demand_mshr_miss_rate::.cpu.data     0.499191                       # mshr miss rate for demand accesses
system.cache_small.demand_mshr_miss_rate::total     0.293840                       # mshr miss rate for demand accesses
system.cache_small.overall_mshr_miss_rate::.cpu.inst     0.211353                       # mshr miss rate for overall accesses
system.cache_small.overall_mshr_miss_rate::.cpu.data     0.499191                       # mshr miss rate for overall accesses
system.cache_small.overall_mshr_miss_rate::total     0.293840                       # mshr miss rate for overall accesses
system.cache_small.demand_avg_mshr_miss_latency::.cpu.inst 58179.907740                       # average overall mshr miss latency
system.cache_small.demand_avg_mshr_miss_latency::.cpu.data 60533.225284                       # average overall mshr miss latency
system.cache_small.demand_avg_mshr_miss_latency::total 59325.618096                       # average overall mshr miss latency
system.cache_small.overall_avg_mshr_miss_latency::.cpu.inst 58179.907740                       # average overall mshr miss latency
system.cache_small.overall_avg_mshr_miss_latency::.cpu.data 60533.225284                       # average overall mshr miss latency
system.cache_small.overall_avg_mshr_miss_latency::total 59325.618096                       # average overall mshr miss latency
system.cache_small.replacements                   219                       # number of replacements
system.cache_small.ReadReq_hits::.cpu.inst         7280                       # number of ReadReq hits
system.cache_small.ReadReq_hits::.cpu.data         1857                       # number of ReadReq hits
system.cache_small.ReadReq_hits::total           9137                       # number of ReadReq hits
system.cache_small.ReadReq_misses::.cpu.inst         1951                       # number of ReadReq misses
system.cache_small.ReadReq_misses::.cpu.data         1851                       # number of ReadReq misses
system.cache_small.ReadReq_misses::total         3802                       # number of ReadReq misses
system.cache_small.ReadReq_miss_latency::.cpu.inst    117411000                       # number of ReadReq miss cycles
system.cache_small.ReadReq_miss_latency::.cpu.data    115749000                       # number of ReadReq miss cycles
system.cache_small.ReadReq_miss_latency::total    233160000                       # number of ReadReq miss cycles
system.cache_small.ReadReq_accesses::.cpu.inst         9231                       # number of ReadReq accesses(hits+misses)
system.cache_small.ReadReq_accesses::.cpu.data         3708                       # number of ReadReq accesses(hits+misses)
system.cache_small.ReadReq_accesses::total        12939                       # number of ReadReq accesses(hits+misses)
system.cache_small.ReadReq_miss_rate::.cpu.inst     0.211353                       # miss rate for ReadReq accesses
system.cache_small.ReadReq_miss_rate::.cpu.data     0.499191                       # miss rate for ReadReq accesses
system.cache_small.ReadReq_miss_rate::total     0.293840                       # miss rate for ReadReq accesses
system.cache_small.ReadReq_avg_miss_latency::.cpu.inst 60179.907740                       # average ReadReq miss latency
system.cache_small.ReadReq_avg_miss_latency::.cpu.data 62533.225284                       # average ReadReq miss latency
system.cache_small.ReadReq_avg_miss_latency::total 61325.618096                       # average ReadReq miss latency
system.cache_small.ReadReq_mshr_misses::.cpu.inst         1951                       # number of ReadReq MSHR misses
system.cache_small.ReadReq_mshr_misses::.cpu.data         1851                       # number of ReadReq MSHR misses
system.cache_small.ReadReq_mshr_misses::total         3802                       # number of ReadReq MSHR misses
system.cache_small.ReadReq_mshr_miss_latency::.cpu.inst    113509000                       # number of ReadReq MSHR miss cycles
system.cache_small.ReadReq_mshr_miss_latency::.cpu.data    112047000                       # number of ReadReq MSHR miss cycles
system.cache_small.ReadReq_mshr_miss_latency::total    225556000                       # number of ReadReq MSHR miss cycles
system.cache_small.ReadReq_mshr_miss_rate::.cpu.inst     0.211353                       # mshr miss rate for ReadReq accesses
system.cache_small.ReadReq_mshr_miss_rate::.cpu.data     0.499191                       # mshr miss rate for ReadReq accesses
system.cache_small.ReadReq_mshr_miss_rate::total     0.293840                       # mshr miss rate for ReadReq accesses
system.cache_small.ReadReq_avg_mshr_miss_latency::.cpu.inst 58179.907740                       # average ReadReq mshr miss latency
system.cache_small.ReadReq_avg_mshr_miss_latency::.cpu.data 60533.225284                       # average ReadReq mshr miss latency
system.cache_small.ReadReq_avg_mshr_miss_latency::total 59325.618096                       # average ReadReq mshr miss latency
system.cache_small.WritebackDirty_hits::.writebacks         2729                       # number of WritebackDirty hits
system.cache_small.WritebackDirty_hits::total         2729                       # number of WritebackDirty hits
system.cache_small.WritebackDirty_accesses::.writebacks         2729                       # number of WritebackDirty accesses(hits+misses)
system.cache_small.WritebackDirty_accesses::total         2729                       # number of WritebackDirty accesses(hits+misses)
system.cache_small.power_state.pwrStateResidencyTicks::UNDEFINED   3961676000                       # Cumulative time (in ticks) in various power states
system.cache_small.tags.tagsinuse         2557.139023                       # Cycle average of tags in use
system.cache_small.tags.total_refs                358                       # Total number of references to valid blocks.
system.cache_small.tags.sampled_refs              219                       # Sample count of references to valid blocks.
system.cache_small.tags.avg_refs             1.634703                       # Average number of references to valid blocks.
system.cache_small.tags.warmup_cycle            76000                       # Cycle when the warmup percentage was hit.
system.cache_small.tags.occ_blocks::.writebacks     9.277298                       # Average occupied blocks per requestor
system.cache_small.tags.occ_blocks::.cpu.inst  1421.681684                       # Average occupied blocks per requestor
system.cache_small.tags.occ_blocks::.cpu.data  1126.180042                       # Average occupied blocks per requestor
system.cache_small.tags.occ_percent::.writebacks     0.000566                       # Average percentage of cache occupancy
system.cache_small.tags.occ_percent::.cpu.inst     0.086773                       # Average percentage of cache occupancy
system.cache_small.tags.occ_percent::.cpu.data     0.068737                       # Average percentage of cache occupancy
system.cache_small.tags.occ_percent::total     0.156075                       # Average percentage of cache occupancy
system.cache_small.tags.occ_task_id_blocks::1024         3599                       # Occupied blocks per task id
system.cache_small.tags.age_task_id_blocks_1024::0            2                       # Occupied blocks per task id
system.cache_small.tags.age_task_id_blocks_1024::1           12                       # Occupied blocks per task id
system.cache_small.tags.age_task_id_blocks_1024::2          396                       # Occupied blocks per task id
system.cache_small.tags.age_task_id_blocks_1024::3         3189                       # Occupied blocks per task id
system.cache_small.tags.occ_task_id_percent::1024     0.219666                       # Percentage of cache occupancy per task id
system.cache_small.tags.tag_accesses            19486                       # Number of tag accesses
system.cache_small.tags.data_accesses           19486                       # Number of data accesses
system.cache_small.tags.power_state.pwrStateResidencyTicks::UNDEFINED   3961676000                       # Cumulative time (in ticks) in various power states
system.icache.demand_hits::.cpu.inst          1295667                       # number of demand (read+write) hits
system.icache.demand_hits::total              1295667                       # number of demand (read+write) hits
system.icache.overall_hits::.cpu.inst         1295667                       # number of overall hits
system.icache.overall_hits::total             1295667                       # number of overall hits
system.icache.demand_misses::.cpu.inst          13976                       # number of demand (read+write) misses
system.icache.demand_misses::total              13976                       # number of demand (read+write) misses
system.icache.overall_misses::.cpu.inst         13976                       # number of overall misses
system.icache.overall_misses::total             13976                       # number of overall misses
system.icache.demand_miss_latency::.cpu.inst    360399000                       # number of demand (read+write) miss cycles
system.icache.demand_miss_latency::total    360399000                       # number of demand (read+write) miss cycles
system.icache.overall_miss_latency::.cpu.inst    360399000                       # number of overall miss cycles
system.icache.overall_miss_latency::total    360399000                       # number of overall miss cycles
system.icache.demand_accesses::.cpu.inst      1309643                       # number of demand (read+write) accesses
system.icache.demand_accesses::total          1309643                       # number of demand (read+write) accesses
system.icache.overall_accesses::.cpu.inst      1309643                       # number of overall (read+write) accesses
system.icache.overall_accesses::total         1309643                       # number of overall (read+write) accesses
system.icache.demand_miss_rate::.cpu.inst     0.010672                       # miss rate for demand accesses
system.icache.demand_miss_rate::total        0.010672                       # miss rate for demand accesses
system.icache.overall_miss_rate::.cpu.inst     0.010672                       # miss rate for overall accesses
system.icache.overall_miss_rate::total       0.010672                       # miss rate for overall accesses
system.icache.demand_avg_miss_latency::.cpu.inst 25786.991986                       # average overall miss latency
system.icache.demand_avg_miss_latency::total 25786.991986                       # average overall miss latency
system.icache.overall_avg_miss_latency::.cpu.inst 25786.991986                       # average overall miss latency
system.icache.overall_avg_miss_latency::total 25786.991986                       # average overall miss latency
system.icache.blocked_cycles::no_mshrs              0                       # number of cycles access was blocked
system.icache.blocked_cycles::no_targets            0                       # number of cycles access was blocked
system.icache.blocked::no_mshrs                     0                       # number of cycles access was blocked
system.icache.blocked::no_targets                   0                       # number of cycles access was blocked
system.icache.avg_blocked_cycles::no_mshrs          nan                       # average number of cycles each access was blocked
system.icache.avg_blocked_cycles::no_targets          nan                       # average number of cycles each access was blocked
system.icache.demand_mshr_misses::.cpu.inst        13976                       # number of demand (read+write) MSHR misses
system.icache.demand_mshr_misses::total         13976                       # number of demand (read+write) MSHR misses
system.icache.overall_mshr_misses::.cpu.inst        13976                       # number of overall MSHR misses
system.icache.overall_mshr_misses::total        13976                       # number of overall MSHR misses
system.icache.demand_mshr_miss_latency::.cpu.inst    332447000                       # number of demand (read+write) MSHR miss cycles
system.icache.demand_mshr_miss_latency::total    332447000                       # number of demand (read+write) MSHR miss cycles
system.icache.overall_mshr_miss_latency::.cpu.inst    332447000                       # number of overall MSHR miss cycles
system.icache.overall_mshr_miss_latency::total    332447000                       # number of overall MSHR miss cycles
system.icache.demand_mshr_miss_rate::.cpu.inst     0.010672                       # mshr miss rate for demand accesses
system.icache.demand_mshr_miss_rate::total     0.010672                       # mshr miss rate for demand accesses
system.icache.overall_mshr_miss_rate::.cpu.inst     0.010672                       # mshr miss rate for overall accesses
system.icache.overall_mshr_miss_rate::total     0.010672                       # mshr miss rate for overall accesses
system.icache.demand_avg_mshr_miss_latency::.cpu.inst 23786.991986                       # average overall mshr miss latency
system.icache.demand_avg_mshr_miss_latency::total 23786.991986                       # average overall mshr miss latency
system.icache.overall_avg_mshr_miss_latency::.cpu.inst 23786.991986                       # average overall mshr miss latency
system.icache.overall_avg_mshr_miss_latency::total 23786.991986                       # average overall mshr miss latency
system.icache.replacements                      13720                       # number of replacements
system.icache.ReadReq_hits::.cpu.inst         1295667                       # number of ReadReq hits
system.icache.ReadReq_hits::total             1295667                       # number of ReadReq hits
system.icache.ReadReq_misses::.cpu.inst         13976                       # number of ReadReq misses
system.icache.ReadReq_misses::total             13976                       # number of ReadReq misses
system.icache.ReadReq_miss_latency::.cpu.inst    360399000                       # number of ReadReq miss cycles
system.icache.ReadReq_miss_latency::total    360399000                       # number of ReadReq miss cycles
system.icache.ReadReq_accesses::.cpu.inst      1309643                       # number of ReadReq accesses(hits+misses)
system.icache.ReadReq_accesses::total         1309643                       # number of ReadReq accesses(hits+misses)
system.icache.ReadReq_miss_rate::.cpu.inst     0.010672                       # miss rate for ReadReq accesses
system.icache.ReadReq_miss_rate::total       0.010672                       # miss rate for ReadReq accesses
system.icache.ReadReq_avg_miss_latency::.cpu.inst 25786.991986                       # average ReadReq miss latency
system.icache.ReadReq_avg_miss_latency::total 25786.991986                       # average ReadReq miss latency
system.icache.ReadReq_mshr_misses::.cpu.inst        13976                       # number of ReadReq MSHR misses
system.icache.ReadReq_mshr_misses::total        13976                       # number of ReadReq MSHR misses
system.icache.ReadReq_mshr_miss_latency::.cpu.inst    332447000                       # number of ReadReq MSHR miss cycles
system.icache.ReadReq_mshr_miss_latency::total    332447000                       # number of ReadReq MSHR miss cycles
system.icache.ReadReq_mshr_miss_rate::.cpu.inst     0.010672                       # mshr miss rate for ReadReq accesses
system.icache.ReadReq_mshr_miss_rate::total     0.010672                       # mshr miss rate for ReadReq accesses
system.icache.ReadReq_avg_mshr_miss_latency::.cpu.inst 23786.991986                       # average ReadReq mshr miss latency
system.icache.ReadReq_avg_mshr_miss_latency::total 23786.991986                       # average ReadReq mshr miss latency
system.icache.power_state.pwrStateResidencyTicks::UNDEFINED   3961676000                       # Cumulative time (in ticks) in various power states
system.icache.tags.tagsinuse               251.800225                       # Cycle average of tags in use
system.icache.tags.total_refs                 1213720                       # Total number of references to valid blocks.
system.icache.tags.sampled_refs                 13720                       # Sample count of references to valid blocks.
system.icache.tags.avg_refs                 88.463557                       # Average number of references to valid blocks.
system.icache.tags.warmup_cycle                 82000                       # Cycle when the warmup percentage was hit.
system.icache.tags.occ_blocks::.cpu.inst   251.800225                       # Average occupied blocks per requestor
system.icache.tags.occ_percent::.cpu.inst     0.983595                       # Average percentage of cache occupancy
system.icache.tags.occ_percent::total        0.983595                       # Average percentage of cache occupancy
system.icache.tags.occ_task_id_blocks::1024          256                       # Occupied blocks per task id
system.icache.tags.age_task_id_blocks_1024::0           21                       # Occupied blocks per task id
system.icache.tags.age_task_id_blocks_1024::1          131                       # Occupied blocks per task id
system.icache.tags.age_task_id_blocks_1024::2           47                       # Occupied blocks per task id
system.icache.tags.age_task_id_blocks_1024::3           57                       # Occupied blocks per task id
system.icache.tags.occ_task_id_percent::1024            1                       # Percentage of cache occupancy per task id
system.icache.tags.tag_accesses               1323619                       # Number of tag accesses
system.icache.tags.data_accesses              1323619                       # Number of data accesses
system.icache.tags.power_state.pwrStateResidencyTicks::UNDEFINED   3961676000                       # Cumulative time (in ticks) in various power states
system.membus.trans_dist::ReadReq                3802                       # Transaction distribution
system.membus.trans_dist::ReadResp               3802                       # Transaction distribution
system.membus.trans_dist::WritebackDirty           72                       # Transaction distribution
system.membus.pkt_count_system.cache_small.mem_side::system.mem_ctrl.port         7676                       # Packet count per connected master and slave (bytes)
system.membus.pkt_count_system.cache_small.mem_side::total         7676                       # Packet count per connected master and slave (bytes)
system.membus.pkt_count::total                   7676                       # Packet count per connected master and slave (bytes)
system.membus.pkt_size_system.cache_small.mem_side::system.mem_ctrl.port       247936                       # Cumulative packet size per connected master and slave (bytes)
system.membus.pkt_size_system.cache_small.mem_side::total       247936                       # Cumulative packet size per connected master and slave (bytes)
system.membus.pkt_size::total                  247936                       # Cumulative packet size per connected master and slave (bytes)
system.membus.reqLayer2.occupancy             4162000                       # Layer occupancy (ticks)
system.membus.reqLayer2.utilization               0.1                       # Layer utilization (%)
system.membus.respLayer1.occupancy           20306500                       # Layer occupancy (ticks)
system.membus.respLayer1.utilization              0.5                       # Layer utilization (%)
system.membus.power_state.pwrStateResidencyTicks::UNDEFINED   3961676000                       # Cumulative time (in ticks) in various power states
system.mem_ctrl.bytes_read::.cpu.inst          124864                       # Number of bytes read from this memory
system.mem_ctrl.bytes_read::.cpu.data          118464                       # Number of bytes read from this memory
system.mem_ctrl.bytes_read::total              243328                       # Number of bytes read from this memory
system.mem_ctrl.bytes_inst_read::.cpu.inst       124864                       # Number of instructions bytes read from this memory
system.mem_ctrl.bytes_inst_read::total         124864                       # Number of instructions bytes read from this memory
system.mem_ctrl.bytes_written::.writebacks         4608                       # Number of bytes written to this memory
system.mem_ctrl.bytes_written::total             4608                       # Number of bytes written to this memory
system.mem_ctrl.num_reads::.cpu.inst             1951                       # Number of read requests responded to by this memory
system.mem_ctrl.num_reads::.cpu.data             1851                       # Number of read requests responded to by this memory
system.mem_ctrl.num_reads::total                 3802                       # Number of read requests responded to by this memory
system.mem_ctrl.num_writes::.writebacks            72                       # Number of write requests responded to by this memory
system.mem_ctrl.num_writes::total                  72                       # Number of write requests responded to by this memory
system.mem_ctrl.bw_read::.cpu.inst           31517974                       # Total read bandwidth from this memory (bytes/s)
system.mem_ctrl.bw_read::.cpu.data           29902496                       # Total read bandwidth from this memory (bytes/s)
system.mem_ctrl.bw_read::total               61420470                       # Total read bandwidth from this memory (bytes/s)
system.mem_ctrl.bw_inst_read::.cpu.inst      31517974                       # Instruction read bandwidth from this memory (bytes/s)
system.mem_ctrl.bw_inst_read::total          31517974                       # Instruction read bandwidth from this memory (bytes/s)
system.mem_ctrl.bw_write::.writebacks         1163144                       # Write bandwidth from this memory (bytes/s)
system.mem_ctrl.bw_write::total               1163144                       # Write bandwidth from this memory (bytes/s)
system.mem_ctrl.bw_total::.writebacks         1163144                       # Total bandwidth to/from this memory (bytes/s)
system.mem_ctrl.bw_total::.cpu.inst          31517974                       # Total bandwidth to/from this memory (bytes/s)
system.mem_ctrl.bw_total::.cpu.data          29902496                       # Total bandwidth to/from this memory (bytes/s)
system.mem_ctrl.bw_total::total              62583614                       # Total bandwidth to/from this memory (bytes/s)
system.mem_ctrl.avgPriority_.writebacks::samples        72.00                       # Average QoS priority value for accepted requests
system.mem_ctrl.avgPriority_.cpu.inst::samples      1951.00                       # Average QoS priority value for accepted requests
system.mem_ctrl.avgPriority_.cpu.data::samples      1851.00                       # Average QoS priority value for accepted requests
system.mem_ctrl.priorityMinLatency       0.000000018750                       # per QoS priority minimum request to response latency (s)
system.mem_ctrl.priorityMaxLatency       0.003182240500                       # per QoS priority maximum request to response latency (s)
system.mem_ctrl.numReadWriteTurnArounds             3                       # Number of turnarounds from READ to WRITE
system.mem_ctrl.numWriteReadTurnArounds             3                       # Number of turnarounds from WRITE to READ
system.mem_ctrl.numStayReadState                 8688                       # Number of times bus staying in READ state
system.mem_ctrl.numStayWriteState                  47                       # Number of times bus staying in WRITE state
system.mem_ctrl.readReqs                         3802                       # Number of read requests accepted
system.mem_ctrl.writeReqs                          72                       # Number of write requests accepted
system.mem_ctrl.readBursts                       3802                       # Number of DRAM read bursts, including those serviced by the write queue
system.mem_ctrl.writeBursts                        72                       # Number of DRAM write bursts, including those merged in the write queue
system.mem_ctrl.servicedByWrQ                       0                       # Number of DRAM read bursts serviced by the write queue
system.mem_ctrl.mergedWrBursts                      0                       # Number of DRAM write bursts merged with an existing one
system.mem_ctrl.neitherReadNorWriteReqs             0                       # Number of requests that are neither read nor write
system.mem_ctrl.perBankRdBursts::0                363                       # Per bank write bursts
system.mem_ctrl.perBankRdBursts::1                212                       # Per bank write bursts
system.mem_ctrl.perBankRdBursts::2                392                       # Per bank write bursts
system.mem_ctrl.perBankRdBursts::3                287                       # Per bank write bursts
system.mem_ctrl.perBankRdBursts::4                326                       # Per bank write bursts
system.mem_ctrl.perBankRdBursts::5                357                       # Per bank write bursts
system.mem_ctrl.perBankRdBursts::6                212                       # Per bank write bursts
system.mem_ctrl.perBankRdBursts::7                226                       # Per bank write bursts
system.mem_ctrl.perBankRdBursts::8                195                       # Per bank write bursts
system.mem_ctrl.perBankRdBursts::9                246                       # Per bank write bursts
system.mem_ctrl.perBankRdBursts::10               264                       # Per bank write bursts
system.mem_ctrl.perBankRdBursts::11               330                       # Per bank write bursts
system.mem_ctrl.perBankRdBursts::12               172                       # Per bank write bursts
system.mem_ctrl.perBankRdBursts::13                15                       # Per bank write bursts
system.mem_ctrl.perBankRdBursts::14                72                       # Per bank write bursts
system.mem_ctrl.perBankRdBursts::15               133                       # Per bank write bursts
system.mem_ctrl.perBankWrBursts::0                  0                       # Per bank write bursts
system.mem_ctrl.perBankWrBursts::1                  3                       # Per bank write bursts
system.mem_ctrl.perBankWrBursts::2                  8                       # Per bank write bursts
system.mem_ctrl.perBankWrBursts::3                  0                       # Per bank write bursts
system.mem_ctrl.perBankWrBursts::4                 31                       # Per bank write bursts
system.mem_ctrl.perBankWrBursts::5                  7                       # Per bank write bursts
system.mem_ctrl.perBankWrBursts::6                  0                       # Per bank write bursts
system.mem_ctrl.perBankWrBursts::7                  0                       # Per bank write bursts
system.mem_ctrl.perBankWrBursts::8                  0                       # Per bank write bursts
system.mem_ctrl.perBankWrBursts::9                  0                       # Per bank write bursts
system.mem_ctrl.perBankWrBursts::10                 0                       # Per bank write bursts
system.mem_ctrl.perBankWrBursts::11                 1                       # Per bank write bursts
system.mem_ctrl.perBankWrBursts::12                 0                       # Per bank write bursts
system.mem_ctrl.perBankWrBursts::13                 0                       # Per bank write bursts
system.mem_ctrl.perBankWrBursts::14                 0                       # Per bank write bursts
system.mem_ctrl.perBankWrBursts::15                 0                       # Per bank write bursts
system.mem_ctrl.avgRdQLen                        1.00                       # Average read queue length when enqueuing
system.mem_ctrl.avgWrQLen                       10.55                       # Average write queue length when enqueuing
system.mem_ctrl.totQLat                      35106250                       # Total ticks spent queuing
system.mem_ctrl.totBusLat                    19010000                       # Total ticks spent in databus transfers
system.mem_ctrl.totMemAccLat                106393750                       # Total ticks spent from burst creation until serviced by the DRAM
system.mem_ctrl.avgQLat                       9233.63                       # Average queueing delay per DRAM burst
system.mem_ctrl.avgBusLat                     5000.00                       # Average bus latency per DRAM burst
system.mem_ctrl.avgMemAccLat                 27983.63                       # Average memory access latency per DRAM burst
system.mem_ctrl.numRdRetry                          0                       # Number of times read queue was full causing retry
system.mem_ctrl.numWrRetry                          0                       # Number of times write queue was full causing retry
system.mem_ctrl.readRowHits                      2555                       # Number of row buffer hits during reads
system.mem_ctrl.writeRowHits                       42                       # Number of row buffer hits during writes
system.mem_ctrl.readRowHitRate                  67.20                       # Row buffer hit rate for reads
system.mem_ctrl.writeRowHitRate                 58.33                       # Row buffer hit rate for writes
system.mem_ctrl.readPktSize::0                      0                       # Read request sizes (log2)
system.mem_ctrl.readPktSize::1                      0                       # Read request sizes (log2)
system.mem_ctrl.readPktSize::2                      0                       # Read request sizes (log2)
system.mem_ctrl.readPktSize::3                      0                       # Read request sizes (log2)
system.mem_ctrl.readPktSize::4                      0                       # Read request sizes (log2)
system.mem_ctrl.readPktSize::5                      0                       # Read request sizes (log2)
system.mem_ctrl.readPktSize::6                   3802                       # Read request sizes (log2)
system.mem_ctrl.writePktSize::0                     0                       # Write request sizes (log2)
system.mem_ctrl.writePktSize::1                     0                       # Write request sizes (log2)
system.mem_ctrl.writePktSize::2                     0                       # Write request sizes (log2)
system.mem_ctrl.writePktSize::3                     0                       # Write request sizes (log2)
system.mem_ctrl.writePktSize::4                     0                       # Write request sizes (log2)
system.mem_ctrl.writePktSize::5                     0                       # Write request sizes (log2)
system.mem_ctrl.writePktSize::6                    72                       # Write request sizes (log2)
system.mem_ctrl.rdQLenPdf::0                     3795                       # What read queue length does an incoming req see
system.mem_ctrl.rdQLenPdf::1                        7                       # What read queue length does an incoming req see
system.mem_ctrl.rdQLenPdf::2                        0                       # What read queue length does an incoming req see
system.mem_ctrl.rdQLenPdf::3                        0                       # What read queue length does an incoming req see
system.mem_ctrl.rdQLenPdf::4                        0                       # What read queue length does an incoming req see
system.mem_ctrl.rdQLenPdf::5                        0                       # What read queue length does an incoming req see
system.mem_ctrl.rdQLenPdf::6                        0                       # What read queue length does an incoming req see
system.mem_ctrl.rdQLenPdf::7                        0                       # What read queue length does an incoming req see
system.mem_ctrl.rdQLenPdf::8                        0                       # What read queue length does an incoming req see
system.mem_ctrl.rdQLenPdf::9                        0                       # What read queue length does an incoming req see
system.mem_ctrl.rdQLenPdf::10                       0                       # What read queue length does an incoming req see
system.mem_ctrl.rdQLenPdf::11                       0                       # What read queue length does an incoming req see
system.mem_ctrl.rdQLenPdf::12                       0                       # What read queue length does an incoming req see
system.mem_ctrl.rdQLenPdf::13                       0                       # What read queue length does an incoming req see
system.mem_ctrl.rdQLenPdf::14                       0                       # What read queue length does an incoming req see
system.mem_ctrl.rdQLenPdf::15                       0                       # What read queue length does an incoming req see
system.mem_ctrl.rdQLenPdf::16                       0                       # What read queue length does an incoming req see
system.mem_ctrl.rdQLenPdf::17                       0                       # What read queue length does an incoming req see
system.mem_ctrl.rdQLenPdf::18                       0                       # What read queue length does an incoming req see
system.mem_ctrl.rdQLenPdf::19                       0                       # What read queue length does an incoming req see
system.mem_ctrl.rdQLenPdf::20                       0                       # What read queue length does an incoming req see
system.mem_ctrl.rdQLenPdf::21                       0                       # What read queue length does an incoming req see
system.mem_ctrl.rdQLenPdf::22                       0                       # What read queue length does an incoming req see
system.mem_ctrl.rdQLenPdf::23                       0                       # What read queue length does an incoming req see
system.mem_ctrl.rdQLenPdf::24                       0                       # What read queue length does an incoming req see
system.mem_ctrl.rdQLenPdf::25                       0                       # What read queue length does an incoming req see
system.mem_ctrl.rdQLenPdf::26                       0                       # What read queue length does an incoming req see
system.mem_ctrl.rdQLenPdf::27                       0                       # What read queue length does an incoming req see
system.mem_ctrl.rdQLenPdf::28                       0                       # What read queue length does an incoming req see
system.mem_ctrl.rdQLenPdf::29                       0                       # What read queue length does an incoming req see
system.mem_ctrl.rdQLenPdf::30                       0                       # What read queue length does an incoming req see
system.mem_ctrl.rdQLenPdf::31                       0                       # What read queue length does an incoming req see
system.mem_ctrl.wrQLenPdf::0                        1                       # What write queue length does an incoming req see
system.mem_ctrl.wrQLenPdf::1                        1                       # What write queue length does an incoming req see
system.mem_ctrl.wrQLenPdf::2                        1                       # What write queue length does an incoming req see
system.mem_ctrl.wrQLenPdf::3                        1                       # What write queue length does an incoming req see
system.mem_ctrl.wrQLenPdf::4                        1                       # What write queue length does an incoming req see
system.mem_ctrl.wrQLenPdf::5                        1                       # What write queue length does an incoming req see
system.mem_ctrl.wrQLenPdf::6                        1                       # What write queue length does an incoming req see
system.mem_ctrl.wrQLenPdf::7                        1                       # What write queue length does an incoming req see
system.mem_ctrl.wrQLenPdf::8                        1                       # What write queue length does an incoming req see
system.mem_ctrl.wrQLenPdf::9                        1                       # What write queue length does an incoming req see
system.mem_ctrl.wrQLenPdf::10                       1                       # What write queue length does an incoming req see
system.mem_ctrl.wrQLenPdf::11                       1                       # What write queue length does an incoming req see
system.mem_ctrl.wrQLenPdf::12                       1                       # What write queue length does an incoming req see
system.mem_ctrl.wrQLenPdf::13                       1                       # What write queue length does an incoming req see
system.mem_ctrl.wrQLenPdf::14                       1                       # What write queue length does an incoming req see
system.mem_ctrl.wrQLenPdf::15                       2                       # What write queue length does an incoming req see
system.mem_ctrl.wrQLenPdf::16                       2                       # What write queue length does an incoming req see
system.mem_ctrl.wrQLenPdf::17                       4                       # What write queue length does an incoming req see
system.mem_ctrl.wrQLenPdf::18                       4                       # What write queue length does an incoming req see
system.mem_ctrl.wrQLenPdf::19                       4                       # What write queue length does an incoming req see
system.mem_ctrl.wrQLenPdf::20                       4                       # What write queue length does an incoming req see
system.mem_ctrl.wrQLenPdf::21                       4                       # What write queue length does an incoming req see
system.mem_ctrl.wrQLenPdf::22                       3                       # What write queue length does an incoming req see
system.mem_ctrl.wrQLenPdf::23                       3                       # What write queue length does an incoming req see
system.mem_ctrl.wrQLenPdf::24                       3                       # What write queue length does an incoming req see
system.mem_ctrl.wrQLenPdf::25                       3                       # What write queue length does an incoming req see
system.mem_ctrl.wrQLenPdf::26                       3                       # What write queue length does an incoming req see
system.mem_ctrl.wrQLenPdf::27                       3                       # What write queue length does an incoming req see
system.mem_ctrl.wrQLenPdf::28                       3                       # What write queue length does an incoming req see
system.mem_ctrl.wrQLenPdf::29                       3                       # What write queue length does an incoming req see
system.mem_ctrl.wrQLenPdf::30                       3                       # What write queue length does an incoming req see
system.mem_ctrl.wrQLenPdf::31                       3                       # What write queue length does an incoming req see
system.mem_ctrl.wrQLenPdf::32                       3                       # What write queue length does an incoming req see
system.mem_ctrl.wrQLenPdf::33                       0                       # What write queue length does an incoming req see
system.mem_ctrl.wrQLenPdf::34                       0                       # What write queue length does an incoming req see
system.mem_ctrl.wrQLenPdf::35                       0                       # What write queue length does an incoming req see
system.mem_ctrl.wrQLenPdf::36                       0                       # What write queue length does an incoming req see
system.mem_ctrl.wrQLenPdf::37                       0                       # What write queue length does an incoming req see
system.mem_ctrl.wrQLenPdf::38                       0                       # What write queue length does an incoming req see
system.mem_ctrl.wrQLenPdf::39                       0                       # What write queue length does an incoming req see
system.mem_ctrl.wrQLenPdf::40                       0                       # What write queue length does an incoming req see
system.mem_ctrl.wrQLenPdf::41                       0                       # What write queue length does an incoming req see
system.mem_ctrl.wrQLenPdf::42                       0                       # What write queue length does an incoming req see
system.mem_ctrl.wrQLenPdf::43                       0                       # What write queue length does an incoming req see
system.mem_ctrl.wrQLenPdf::44                       0                       # What write queue length does an incoming req see
system.mem_ctrl.wrQLenPdf::45                       0                       # What write queue length does an incoming req see
system.mem_ctrl.wrQLenPdf::46                       0                       # What write queue length does an incoming req see
system.mem_ctrl.wrQLenPdf::47                       0                       # What write queue length does an incoming req see
system.mem_ctrl.wrQLenPdf::48                       0                       # What write queue length does an incoming req see
system.mem_ctrl.wrQLenPdf::49                       0                       # What write queue length does an incoming req see
system.mem_ctrl.wrQLenPdf::50                       0                       # What write queue length does an incoming req see
system.mem_ctrl.wrQLenPdf::51                       0                       # What write queue length does an incoming req see
system.mem_ctrl.wrQLenPdf::52                       0                       # What write queue length does an incoming req see
system.mem_ctrl.wrQLenPdf::53                       0                       # What write queue length does an incoming req see
system.mem_ctrl.wrQLenPdf::54                       0                       # What write queue length does an incoming req see
system.mem_ctrl.wrQLenPdf::55                       0                       # What write queue length does an incoming req see
system.mem_ctrl.wrQLenPdf::56                       0                       # What write queue length does an incoming req see
system.mem_ctrl.wrQLenPdf::57                       0                       # What write queue length does an incoming req see
system.mem_ctrl.wrQLenPdf::58                       0                       # What write queue length does an incoming req see
system.mem_ctrl.wrQLenPdf::59                       0                       # What write queue length does an incoming req see
system.mem_ctrl.wrQLenPdf::60                       0                       # What write queue length does an incoming req see
system.mem_ctrl.wrQLenPdf::61                       0                       # What write queue length does an incoming req see
system.mem_ctrl.wrQLenPdf::62                       0                       # What write queue length does an incoming req see
system.mem_ctrl.wrQLenPdf::63                       0                       # What write queue length does an incoming req see
system.mem_ctrl.bytesPerActivate::samples         1253                       # Bytes accessed per row activation
system.mem_ctrl.bytesPerActivate::mean     196.648045                       # Bytes accessed per row activation
system.mem_ctrl.bytesPerActivate::gmean    142.987575                       # Bytes accessed per row activation
system.mem_ctrl.bytesPerActivate::stdev    186.926721                       # Bytes accessed per row activation
system.mem_ctrl.bytesPerActivate::0-127           461     36.79%     36.79% # Bytes accessed per row activation
system.mem_ctrl.bytesPerActivate::128-255          435     34.72%     71.51% # Bytes accessed per row activation
system.mem_ctrl.bytesPerActivate::256-383          204     16.28%     87.79% # Bytes accessed per row activation
system.mem_ctrl.bytesPerActivate::384-511           58      4.63%     92.42% # Bytes accessed per row activation
system.mem_ctrl.bytesPerActivate::512-639           33      2.63%     95.05% # Bytes accessed per row activation
system.mem_ctrl.bytesPerActivate::640-767           23      1.84%     96.89% # Bytes accessed per row activation
system.mem_ctrl.bytesPerActivate::768-895           14      1.12%     98.00% # Bytes accessed per row activation
system.mem_ctrl.bytesPerActivate::896-1023            8      0.64%     98.64% # Bytes accessed per row activation
system.mem_ctrl.bytesPerActivate::1024-1151           17      1.36%    100.00% # Bytes accessed per row activation
system.mem_ctrl.bytesPerActivate::total          1253                       # Bytes accessed per row activation
system.mem_ctrl.rdPerTurnAround::samples            3                       # Reads before turning the bus around for writes
system.mem_ctrl.rdPerTurnAround::mean            1251                       # Reads before turning the bus around for writes
system.mem_ctrl.rdPerTurnAround::gmean     349.981855                       # Reads before turning the bus around for writes
system.mem_ctrl.rdPerTurnAround::stdev    1717.358146                       # Reads before turning the bus around for writes
system.mem_ctrl.rdPerTurnAround::0-127              1     33.33%     33.33% # Reads before turning the bus around for writes
system.mem_ctrl.rdPerTurnAround::512-639            1     33.33%     66.67% # Reads before turning the bus around for writes
system.mem_ctrl.rdPerTurnAround::3200-3327            1     33.33%    100.00% # Reads before turning the bus around for writes
system.mem_ctrl.rdPerTurnAround::total              3                       # Reads before turning the bus around for writes
system.mem_ctrl.wrPerTurnAround::samples            3                       # Writes before turning the bus around for reads
system.mem_ctrl.wrPerTurnAround::mean       16.666667                       # Writes before turning the bus around for reads
system.mem_ctrl.wrPerTurnAround::gmean      16.640671                       # Writes before turning the bus around for reads
system.mem_ctrl.wrPerTurnAround::stdev       1.154701                       # Writes before turning the bus around for reads
system.mem_ctrl.wrPerTurnAround::16                 2     66.67%     66.67% # Writes before turning the bus around for reads
system.mem_ctrl.wrPerTurnAround::18                 1     33.33%    100.00% # Writes before turning the bus around for reads
system.mem_ctrl.wrPerTurnAround::total              3                       # Writes before turning the bus around for reads
system.mem_ctrl.bytesReadDRAM                  243328                       # Total number of bytes read from DRAM
system.mem_ctrl.bytesReadWrQ                        0                       # Total number of bytes read from write queue
system.mem_ctrl.bytesWritten                     3200                       # Total number of bytes written to DRAM
system.mem_ctrl.bytesReadSys                   243328                       # Total read bytes from the system interface side
system.mem_ctrl.bytesWrittenSys                  4608                       # Total written bytes from the system interface side
system.mem_ctrl.avgRdBW                         61.42                       # Average DRAM read bandwidth in MiByte/s
system.mem_ctrl.avgWrBW                          0.81                       # Average achieved write bandwidth in MiByte/s
system.mem_ctrl.avgRdBWSys                      61.42                       # Average system read bandwidth in MiByte/s
system.mem_ctrl.avgWrBWSys                       1.16                       # Average system write bandwidth in MiByte/s
system.mem_ctrl.peakBW                       12800.00                       # Theoretical peak bandwidth in MiByte/s
system.mem_ctrl.busUtil                          0.49                       # Data bus utilization in percentage
system.mem_ctrl.busUtilRead                      0.48                       # Data bus utilization in percentage for reads
system.mem_ctrl.busUtilWrite                     0.01                       # Data bus utilization in percentage for writes
system.mem_ctrl.totGap                     3958524000                       # Total gap between requests
system.mem_ctrl.avgGap                     1021818.28                       # Average gap between requests
system.mem_ctrl.masterReadBytes::.cpu.inst       124864                       # Per-master bytes read from memory
system.mem_ctrl.masterReadBytes::.cpu.data       118464                       # Per-master bytes read from memory
system.mem_ctrl.masterWriteBytes::.writebacks         3200                       # Per-master bytes write to memory
system.mem_ctrl.masterReadRate::.cpu.inst 31517973.706077933311                       # Per-master bytes read from memory rate (Bytes/sec)
system.mem_ctrl.masterReadRate::.cpu.data 29902495.812378399074                       # Per-master bytes read from memory rate (Bytes/sec)
system.mem_ctrl.masterWriteRate::.writebacks 807738.946849767584                       # Per-master bytes write to memory rate (Bytes/sec)
system.mem_ctrl.masterReadAccesses::.cpu.inst         1951                       # Per-master read serviced memory accesses
system.mem_ctrl.masterReadAccesses::.cpu.data         1851                       # Per-master read serviced memory accesses
system.mem_ctrl.masterWriteAccesses::.writebacks           72                       # Per-master write serviced memory accesses
system.mem_ctrl.masterReadTotalLat::.cpu.inst     52381500                       # Per-master read total memory access latency
system.mem_ctrl.masterReadTotalLat::.cpu.data     54012250                       # Per-master read total memory access latency
system.mem_ctrl.masterWriteTotalLat::.writebacks  24893702750                       # Per-master write total memory access latency
system.mem_ctrl.masterReadAvgLat::.cpu.inst     26848.54                       # Per-master read average memory access latency
system.mem_ctrl.masterReadAvgLat::.cpu.data     29180.04                       # Per-master read average memory access latency
system.mem_ctrl.masterWriteAvgLat::.writebacks 345745871.53                       # Per-master write average memory access latency
system.mem_ctrl.pageHitRate                     67.04                       # Row buffer hit rate, read and write combined
system.mem_ctrl.rank1.actEnergy               3520020                       # Energy for activate commands per rank (pJ)
system.mem_ctrl.rank1.preEnergy               1870935                       # Energy for precharge commands per rank (pJ)
system.mem_ctrl.rank1.readEnergy             10188780                       # Energy for read commands per rank (pJ)
system.mem_ctrl.rank1.writeEnergy                5220                       # Energy for write commands per rank (pJ)
system.mem_ctrl.rank1.refreshEnergy      312237120.000000                       # Energy for refresh commands per rank (pJ)
system.mem_ctrl.rank1.actBackEnergy         727973790                       # Energy for active background per rank (pJ)
system.mem_ctrl.rank1.preBackEnergy         908253120                       # Energy for precharge background per rank (pJ)
system.mem_ctrl.rank1.actPowerDownEnergy            0                       # Energy for active power-down per rank (pJ)
system.mem_ctrl.rank1.prePowerDownEnergy            0                       # Energy for precharge power-down per rank (pJ)
system.mem_ctrl.rank1.selfRefreshEnergy             0                       # Energy for self refresh per rank (pJ)
system.mem_ctrl.rank1.totalEnergy          1964048985                       # Total energy per rank (pJ)
system.mem_ctrl.rank1.averagePower         495.762143                       # Core power per rank (mW)
system.mem_ctrl.rank1.totalIdleTime                 0                       # Total Idle time Per DRAM Rank
system.mem_ctrl.rank1.memoryStateTime::IDLE   2354217750                       # Time in different power states
system.mem_ctrl.rank1.memoryStateTime::REF    132080000                       # Time in different power states
system.mem_ctrl.rank1.memoryStateTime::SREF            0                       # Time in different power states
system.mem_ctrl.rank1.memoryStateTime::PRE_PDN            0                       # Time in different power states
system.mem_ctrl.rank1.memoryStateTime::ACT   1475378250                       # Time in different power states
system.mem_ctrl.rank1.memoryStateTime::ACT_PDN            0                       # Time in different power states
system.mem_ctrl.rank0.actEnergy               5440680                       # Energy for activate commands per rank (pJ)
system.mem_ctrl.rank0.preEnergy               2884200                       # Energy for precharge commands per rank (pJ)
system.mem_ctrl.rank0.readEnergy             16957500                       # Energy for read commands per rank (pJ)
system.mem_ctrl.rank0.writeEnergy              255780                       # Energy for write commands per rank (pJ)
system.mem_ctrl.rank0.refreshEnergy      312237120.000000                       # Energy for refresh commands per rank (pJ)
system.mem_ctrl.rank0.actBackEnergy         924420870                       # Energy for active background per rank (pJ)
system.mem_ctrl.rank0.preBackEnergy         742824000                       # Energy for precharge background per rank (pJ)
system.mem_ctrl.rank0.actPowerDownEnergy            0                       # Energy for active power-down per rank (pJ)
system.mem_ctrl.rank0.prePowerDownEnergy            0                       # Energy for precharge power-down per rank (pJ)
system.mem_ctrl.rank0.selfRefreshEnergy             0                       # Energy for self refresh per rank (pJ)
system.mem_ctrl.rank0.totalEnergy          2005020150                       # Total energy per rank (pJ)
system.mem_ctrl.rank0.averagePower         506.104020                       # Core power per rank (mW)
system.mem_ctrl.rank0.totalIdleTime                 0                       # Total Idle time Per DRAM Rank
system.mem_ctrl.rank0.memoryStateTime::IDLE   1922631500                       # Time in different power states
system.mem_ctrl.rank0.memoryStateTime::REF    132080000                       # Time in different power states
system.mem_ctrl.rank0.memoryStateTime::SREF            0                       # Time in different power states
system.mem_ctrl.rank0.memoryStateTime::PRE_PDN            0                       # Time in different power states
system.mem_ctrl.rank0.memoryStateTime::ACT   1906964500                       # Time in different power states
system.mem_ctrl.rank0.memoryStateTime::ACT_PDN            0                       # Time in different power states
system.mem_ctrl.power_state.pwrStateResidencyTicks::UNDEFINED   3961676000                       # Cumulative time (in ticks) in various power states
system.cache_medium.blocked_cycles::no_mshrs            0                       # number of cycles access was blocked
system.cache_medium.blocked_cycles::no_targets            0                       # number of cycles access was blocked
system.cache_medium.blocked::no_mshrs               0                       # number of cycles access was blocked
system.cache_medium.blocked::no_targets             0                       # number of cycles access was blocked
system.cache_medium.avg_blocked_cycles::no_mshrs          nan                       # average number of cycles each access was blocked
system.cache_medium.avg_blocked_cycles::no_targets          nan                       # average number of cycles each access was blocked
system.cache_medium.replacements                    0                       # number of replacements
system.cache_medium.power_state.pwrStateResidencyTicks::UNDEFINED   3961676000                       # Cumulative time (in ticks) in various power states
system.cache_medium.tags.tagsinuse                  0                       # Cycle average of tags in use
system.cache_medium.tags.total_refs                 0                       # Total number of references to valid blocks.
system.cache_medium.tags.sampled_refs               0                       # Sample count of references to valid blocks.
system.cache_medium.tags.avg_refs                 nan                       # Average number of references to valid blocks.
system.cache_medium.tags.warmup_cycle               0                       # Cycle when the warmup percentage was hit.
system.cache_medium.tags.tag_accesses               0                       # Number of tag accesses
system.cache_medium.tags.data_accesses              0                       # Number of data accesses
system.cache_medium.tags.power_state.pwrStateResidencyTicks::UNDEFINED   3961676000                       # Cumulative time (in ticks) in various power states
system.clk_domain.clock                          1000                       # Clock period in ticks
system.clk_domain.voltage_domain.voltage            1                       # Voltage in Volts
system.dcache.demand_hits::.cpu.data           359957                       # number of demand (read+write) hits
system.dcache.demand_hits::total               359957                       # number of demand (read+write) hits
system.dcache.overall_hits::.cpu.data          360032                       # number of overall hits
system.dcache.overall_hits::total              360032                       # number of overall hits
system.dcache.demand_misses::.cpu.data           8826                       # number of demand (read+write) misses
system.dcache.demand_misses::total               8826                       # number of demand (read+write) misses
system.dcache.overall_misses::.cpu.data          8826                       # number of overall misses
system.dcache.overall_misses::total              8826                       # number of overall misses
system.dcache.demand_miss_latency::.cpu.data    259465000                       # number of demand (read+write) miss cycles
system.dcache.demand_miss_latency::total    259465000                       # number of demand (read+write) miss cycles
system.dcache.overall_miss_latency::.cpu.data    259465000                       # number of overall miss cycles
system.dcache.overall_miss_latency::total    259465000                       # number of overall miss cycles
system.dcache.demand_accesses::.cpu.data       368783                       # number of demand (read+write) accesses
system.dcache.demand_accesses::total           368783                       # number of demand (read+write) accesses
system.dcache.overall_accesses::.cpu.data       368858                       # number of overall (read+write) accesses
system.dcache.overall_accesses::total          368858                       # number of overall (read+write) accesses
system.dcache.demand_miss_rate::.cpu.data     0.023933                       # miss rate for demand accesses
system.dcache.demand_miss_rate::total        0.023933                       # miss rate for demand accesses
system.dcache.overall_miss_rate::.cpu.data     0.023928                       # miss rate for overall accesses
system.dcache.overall_miss_rate::total       0.023928                       # miss rate for overall accesses
system.dcache.demand_avg_miss_latency::.cpu.data 29397.801949                       # average overall miss latency
system.dcache.demand_avg_miss_latency::total 29397.801949                       # average overall miss latency
system.dcache.overall_avg_miss_latency::.cpu.data 29397.801949                       # average overall miss latency
system.dcache.overall_avg_miss_latency::total 29397.801949                       # average overall miss latency
system.dcache.blocked_cycles::no_mshrs              0                       # number of cycles access was blocked
system.dcache.blocked_cycles::no_targets            0                       # number of cycles access was blocked
system.dcache.blocked::no_mshrs                     0                       # number of cycles access was blocked
system.dcache.blocked::no_targets                   0                       # number of cycles access was blocked
system.dcache.avg_blocked_cycles::no_mshrs          nan                       # average number of cycles each access was blocked
system.dcache.avg_blocked_cycles::no_targets          nan                       # average number of cycles each access was blocked
system.dcache.writebacks::.writebacks            4335                       # number of writebacks
system.dcache.writebacks::total                  4335                       # number of writebacks
system.dcache.demand_mshr_misses::.cpu.data         8826                       # number of demand (read+write) MSHR misses
system.dcache.demand_mshr_misses::total          8826                       # number of demand (read+write) MSHR misses
system.dcache.overall_mshr_misses::.cpu.data         8826                       # number of overall MSHR misses
system.dcache.overall_mshr_misses::total         8826                       # number of overall MSHR misses
system.dcache.demand_mshr_miss_latency::.cpu.data    241815000                       # number of demand (read+write) MSHR miss cycles
system.dcache.demand_mshr_miss_latency::total    241815000                       # number of demand (read+write) MSHR miss cycles
[...]
system.dcache.tags.age_task_id_blocks_1024::2          106                       # Occupied blocks per task id
system.dcache.tags.age_task_id_blocks_1024::3           87                       # Occupied blocks per task id
system.dcache.tags.occ_task_id_percent::1024            1                       # Percentage of cache occupancy per task id
system.dcache.tags.tag_accesses               2699774                       # Number of tag accesses
system.dcache.tags.data_accesses              2699774                       # Number of data accesses
system.dcache.tags.power_state.pwrStateResidencyTicks::UNDEFINED  26846052000                       # Cumulative time (in ticks) in various power states
system.cache_large.blocked_cycles::no_mshrs            0                       # number of cycles access was blocked
system.cache_large.blocked_cycles::no_targets            0                       # number of cycles access was blocked
system.cache_large.blocked::no_mshrs                0                       # number of cycles access was blocked
system.cache_large.blocked::no_targets              0                       # number of cycles access was blocked
system.cache_large.avg_blocked_cycles::no_mshrs          nan                       # average number of cycles each access was blocked
system.cache_large.avg_blocked_cycles::no_targets          nan                       # average number of cycles each access was blocked
system.cache_large.replacements                     0                       # number of replacements
system.cache_large.power_state.pwrStateResidencyTicks::UNDEFINED  26846052000                       # Cumulative time (in ticks) in various power states
system.cache_large.tags.tagsinuse                   0                       # Cycle average of tags in use
system.cache_large.tags.total_refs                  0                       # Total number of references to valid blocks.
system.cache_large.tags.sampled_refs                0                       # Sample count of references to valid blocks.
system.cache_large.tags.avg_refs                  nan                       # Average number of references to valid blocks.
system.cache_large.tags.warmup_cycle                0                       # Cycle when the warmup percentage was hit.
system.cache_large.tags.tag_accesses                0                       # Number of tag accesses
system.cache_large.tags.data_accesses               0                       # Number of data accesses
system.cache_large.tags.power_state.pwrStateResidencyTicks::UNDEFINED  26846052000                       # Cumulative time (in ticks) in various power states
system.l2cache.demand_hits::.cpu.inst           40098                       # number of demand (read+write) hits
system.l2cache.demand_hits::.cpu.data           35519                       # number of demand (read+write) hits
system.l2cache.demand_hits::total               75617                       # number of demand (read+write) hits
system.l2cache.overall_hits::.cpu.inst          40098                       # number of overall hits
system.l2cache.overall_hits::.cpu.data          35519                       # number of overall hits
system.l2cache.overall_hits::total              75617                       # number of overall hits
system.l2cache.demand_misses::.cpu.inst         68332                       # number of demand (read+write) misses
system.l2cache.demand_misses::.cpu.data         32868                       # number of demand (read+write) misses
system.l2cache.demand_misses::total            101200                       # number of demand (read+write) misses
system.l2cache.overall_misses::.cpu.inst        68332                       # number of overall misses
system.l2cache.overall_misses::.cpu.data        32868                       # number of overall misses
system.l2cache.overall_misses::total           101200                       # number of overall misses
system.l2cache.demand_miss_latency::.cpu.inst   1083867000                       # number of demand (read+write) miss cycles
system.l2cache.demand_miss_latency::.cpu.data    748051000                       # number of demand (read+write) miss cycles
system.l2cache.demand_miss_latency::total   1831918000                       # number of demand (read+write) miss cycles
system.l2cache.overall_miss_latency::.cpu.inst   1083867000                       # number of overall miss cycles
system.l2cache.overall_miss_latency::.cpu.data    748051000                       # number of overall miss cycles
system.l2cache.overall_miss_latency::total   1831918000                       # number of overall miss cycles
system.l2cache.demand_accesses::.cpu.inst       108430                       # number of demand (read+write) accesses
system.l2cache.demand_accesses::.cpu.data        68387                       # number of demand (read+write) accesses
system.l2cache.demand_accesses::total          176817                       # number of demand (read+write) accesses
system.l2cache.overall_accesses::.cpu.inst       108430                       # number of overall (read+write) accesses
system.l2cache.overall_accesses::.cpu.data        68387                       # number of overall (read+write) accesses
system.l2cache.overall_accesses::total         176817                       # number of overall (read+write) accesses
system.l2cache.demand_miss_rate::.cpu.inst     0.630195                       # miss rate for demand accesses
system.l2cache.demand_miss_rate::.cpu.data     0.480618                       # miss rate for demand accesses
system.l2cache.demand_miss_rate::total       0.572343                       # miss rate for demand accesses
system.l2cache.overall_miss_rate::.cpu.inst     0.630195                       # miss rate for overall accesses
system.l2cache.overall_miss_rate::.cpu.data     0.480618                       # miss rate for overall accesses
system.l2cache.overall_miss_rate::total      0.572343                       # miss rate for overall accesses
system.l2cache.demand_avg_miss_latency::.cpu.inst 15861.777791                       # average overall miss latency
system.l2cache.demand_avg_miss_latency::.cpu.data 22759.249118                       # average overall miss latency
system.l2cache.demand_avg_miss_latency::total 18101.956522                       # average overall miss latency
system.l2cache.overall_avg_miss_latency::.cpu.inst 15861.777791                       # average overall miss latency
system.l2cache.overall_avg_miss_latency::.cpu.data 22759.249118                       # average overall miss latency
system.l2cache.overall_avg_miss_latency::total 18101.956522                       # average overall miss latency
system.l2cache.blocked_cycles::no_mshrs             0                       # number of cycles access was blocked
system.l2cache.blocked_cycles::no_targets            0                       # number of cycles access was blocked
system.l2cache.blocked::no_mshrs                    0                       # number of cycles access was blocked
system.l2cache.blocked::no_targets                  0                       # number of cycles access was blocked
system.l2cache.avg_blocked_cycles::no_mshrs          nan                       # average number of cycles each access was blocked
system.l2cache.avg_blocked_cycles::no_targets          nan                       # average number of cycles each access was blocked
system.l2cache.writebacks::.writebacks          15261                       # number of writebacks
system.l2cache.writebacks::total                15261                       # number of writebacks
system.l2cache.demand_mshr_misses::.cpu.inst        68332                       # number of demand (read+write) MSHR misses
system.l2cache.demand_mshr_misses::.cpu.data        32868                       # number of demand (read+write) MSHR misses
system.l2cache.demand_mshr_misses::total       101200                       # number of demand (read+write) MSHR misses
system.l2cache.overall_mshr_misses::.cpu.inst        68332                       # number of overall MSHR misses
system.l2cache.overall_mshr_misses::.cpu.data        32868                       # number of overall MSHR misses
system.l2cache.overall_mshr_misses::total       101200                       # number of overall MSHR misses
system.l2cache.demand_mshr_miss_latency::.cpu.inst    947203000                       # number of demand (read+write) MSHR miss cycles
system.l2cache.demand_mshr_miss_latency::.cpu.data    682315000                       # number of demand (read+write) MSHR miss cycles
system.l2cache.demand_mshr_miss_latency::total   1629518000                       # number of demand (read+write) MSHR miss cycles
system.l2cache.overall_mshr_miss_latency::.cpu.inst    947203000                       # number of overall MSHR miss cycles
system.l2cache.overall_mshr_miss_latency::.cpu.data    682315000                       # number of overall MSHR miss cycles
system.l2cache.overall_mshr_miss_latency::total   1629518000                       # number of overall MSHR miss cycles
system.l2cache.demand_mshr_miss_rate::.cpu.inst     0.630195                       # mshr miss rate for demand accesses
system.l2cache.demand_mshr_miss_rate::.cpu.data     0.480618                       # mshr miss rate for demand accesses
system.l2cache.demand_mshr_miss_rate::total     0.572343                       # mshr miss rate for demand accesses
system.l2cache.overall_mshr_miss_rate::.cpu.inst     0.630195                       # mshr miss rate for overall accesses
system.l2cache.overall_mshr_miss_rate::.cpu.data     0.480618                       # mshr miss rate for overall accesses
system.l2cache.overall_mshr_miss_rate::total     0.572343                       # mshr miss rate for overall accesses
system.l2cache.demand_avg_mshr_miss_latency::.cpu.inst 13861.777791                       # average overall mshr miss latency
system.l2cache.demand_avg_mshr_miss_latency::.cpu.data 20759.249118                       # average overall mshr miss latency
system.l2cache.demand_avg_mshr_miss_latency::total 16101.956522                       # average overall mshr miss latency
system.l2cache.overall_avg_mshr_miss_latency::.cpu.inst 13861.777791                       # average overall mshr miss latency
system.l2cache.overall_avg_mshr_miss_latency::.cpu.data 20759.249118                       # average overall mshr miss latency
system.l2cache.overall_avg_mshr_miss_latency::total 16101.956522                       # average overall mshr miss latency
system.l2cache.replacements                    113804                       # number of replacements
system.l2cache.ReadReq_hits::.cpu.inst          40098                       # number of ReadReq hits
system.l2cache.ReadReq_hits::.cpu.data          35519                       # number of ReadReq hits
system.l2cache.ReadReq_hits::total              75617                       # number of ReadReq hits
system.l2cache.ReadReq_misses::.cpu.inst        68332                       # number of ReadReq misses
system.l2cache.ReadReq_misses::.cpu.data        32868                       # number of ReadReq misses
system.l2cache.ReadReq_misses::total           101200                       # number of ReadReq misses
system.l2cache.ReadReq_miss_latency::.cpu.inst   1083867000                       # number of ReadReq miss cycles
system.l2cache.ReadReq_miss_latency::.cpu.data    748051000                       # number of ReadReq miss cycles
system.l2cache.ReadReq_miss_latency::total   1831918000                       # number of ReadReq miss cycles
system.l2cache.ReadReq_accesses::.cpu.inst       108430                       # number of ReadReq accesses(hits+misses)
system.l2cache.ReadReq_accesses::.cpu.data        68387                       # number of ReadReq accesses(hits+misses)
system.l2cache.ReadReq_accesses::total         176817                       # number of ReadReq accesses(hits+misses)
system.l2cache.ReadReq_miss_rate::.cpu.inst     0.630195                       # miss rate for ReadReq accesses
system.l2cache.ReadReq_miss_rate::.cpu.data     0.480618                       # miss rate for ReadReq accesses
system.l2cache.ReadReq_miss_rate::total      0.572343                       # miss rate for ReadReq accesses
system.l2cache.ReadReq_avg_miss_latency::.cpu.inst 15861.777791                       # average ReadReq miss latency
system.l2cache.ReadReq_avg_miss_latency::.cpu.data 22759.249118                       # average ReadReq miss latency
system.l2cache.ReadReq_avg_miss_latency::total 18101.956522                       # average ReadReq miss latency
system.l2cache.ReadReq_mshr_misses::.cpu.inst        68332                       # number of ReadReq MSHR misses
system.l2cache.ReadReq_mshr_misses::.cpu.data        32868                       # number of ReadReq MSHR misses
system.l2cache.ReadReq_mshr_misses::total       101200                       # number of ReadReq MSHR misses
system.l2cache.ReadReq_mshr_miss_latency::.cpu.inst    947203000                       # number of ReadReq MSHR miss cycles
system.l2cache.ReadReq_mshr_miss_latency::.cpu.data    682315000                       # number of ReadReq MSHR miss cycles
system.l2cache.ReadReq_mshr_miss_latency::total   1629518000                       # number of ReadReq MSHR miss cycles
system.l2cache.ReadReq_mshr_miss_rate::.cpu.inst     0.630195                       # mshr miss rate for ReadReq accesses
system.l2cache.ReadReq_mshr_miss_rate::.cpu.data     0.480618                       # mshr miss rate for ReadReq accesses
system.l2cache.ReadReq_mshr_miss_rate::total     0.572343                       # mshr miss rate for ReadReq accesses
system.l2cache.ReadReq_avg_mshr_miss_latency::.cpu.inst 13861.777791                       # average ReadReq mshr miss latency
system.l2cache.ReadReq_avg_mshr_miss_latency::.cpu.data 20759.249118                       # average ReadReq mshr miss latency
system.l2cache.ReadReq_avg_mshr_miss_latency::total 16101.956522                       # average ReadReq mshr miss latency
system.l2cache.WritebackDirty_hits::.writebacks        23707                       # number of WritebackDirty hits
system.l2cache.WritebackDirty_hits::total        23707                       # number of WritebackDirty hits
system.l2cache.WritebackDirty_accesses::.writebacks        23707                       # number of WritebackDirty accesses(hits+misses)
system.l2cache.WritebackDirty_accesses::total        23707                       # number of WritebackDirty accesses(hits+misses)
system.l2cache.power_state.pwrStateResidencyTicks::UNDEFINED  26846052000                       # Cumulative time (in ticks) in various power states
system.l2cache.tags.tagsinuse              510.253108                       # Cycle average of tags in use
system.l2cache.tags.total_refs                 200524                       # Total number of references to valid blocks.
system.l2cache.tags.sampled_refs               114316                       # Sample count of references to valid blocks.
system.l2cache.tags.avg_refs                 1.754120                       # Average number of references to valid blocks.
system.l2cache.tags.warmup_cycle                78000                       # Cycle when the warmup percentage was hit.
system.l2cache.tags.occ_blocks::.writebacks    66.663069                       # Average occupied blocks per requestor
system.l2cache.tags.occ_blocks::.cpu.inst   250.907474                       # Average occupied blocks per requestor
system.l2cache.tags.occ_blocks::.cpu.data   192.682565                       # Average occupied blocks per requestor
system.l2cache.tags.occ_percent::.writebacks     0.130201                       # Average percentage of cache occupancy
system.l2cache.tags.occ_percent::.cpu.inst     0.490054                       # Average percentage of cache occupancy
system.l2cache.tags.occ_percent::.cpu.data     0.376333                       # Average percentage of cache occupancy
system.l2cache.tags.occ_percent::total       0.996588                       # Average percentage of cache occupancy
system.l2cache.tags.occ_task_id_blocks::1024          512                       # Occupied blocks per task id
system.l2cache.tags.age_task_id_blocks_1024::0           64                       # Occupied blocks per task id
system.l2cache.tags.age_task_id_blocks_1024::1          109                       # Occupied blocks per task id
system.l2cache.tags.age_task_id_blocks_1024::2          179                       # Occupied blocks per task id
system.l2cache.tags.age_task_id_blocks_1024::3          160                       # Occupied blocks per task id
system.l2cache.tags.occ_task_id_percent::1024            1                       # Percentage of cache occupancy per task id
system.l2cache.tags.tag_accesses               314840                       # Number of tag accesses
system.l2cache.tags.data_accesses              314840                       # Number of data accesses
system.l2cache.tags.power_state.pwrStateResidencyTicks::UNDEFINED  26846052000                       # Cumulative time (in ticks) in various power states
system.l2bar.trans_dist::ReadReq               176817                       # Transaction distribution
system.l2bar.trans_dist::ReadResp              176817                       # Transaction distribution
system.l2bar.trans_dist::WritebackDirty         23707                       # Transaction distribution
system.l2bar.pkt_count_system.dcache.mem_side::system.l2cache.cpu_side       160481                       # Packet count per connected master and slave (bytes)
system.l2bar.pkt_count_system.icache.mem_side::system.l2cache.cpu_side       216860                       # Packet count per connected master and slave (bytes)
system.l2bar.pkt_count::total                  377341                       # Packet count per connected master and slave (bytes)
system.l2bar.pkt_size_system.dcache.mem_side::system.l2cache.cpu_side      5894016                       # Cumulative packet size per connected master and slave (bytes)
system.l2bar.pkt_size_system.icache.mem_side::system.l2cache.cpu_side      6939520                       # Cumulative packet size per connected master and slave (bytes)
system.l2bar.pkt_size::total                 12833536                       # Cumulative packet size per connected master and slave (bytes)
system.l2bar.respLayer1.occupancy           542150000                       # Layer occupancy (ticks)
system.l2bar.respLayer1.utilization               2.0                       # Layer utilization (%)
system.l2bar.reqLayer0.occupancy            295352000                       # Layer occupancy (ticks)
system.l2bar.reqLayer0.utilization                1.1                       # Layer utilization (%)
system.l2bar.respLayer0.occupancy           341935000                       # Layer occupancy (ticks)
system.l2bar.respLayer0.utilization               1.3                       # Layer utilization (%)
system.l2bar.power_state.pwrStateResidencyTicks::UNDEFINED  26846052000                       # Cumulative time (in ticks) in various power states
system.cpu.dtb.walker.power_state.pwrStateResidencyTicks::UNDEFINED  26846052000                       # Cumulative time (in ticks) in various power states
system.cpu.interrupts.clk_domain.clock          16000                       # Clock period in ticks
system.cpu.itb.walker.power_state.pwrStateResidencyTicks::UNDEFINED  26846052000                       # Cumulative time (in ticks) in various power states
system.cpu.power_state.numTransitions               1                       # Number of power state transitions
system.cpu.power_state.pwrStateResidencyTicks::ON  26846052000                       # Cumulative time (in ticks) in various power states

---------- End Simulation Statistics   ----------
