
---------- Begin Simulation Statistics ----------
final_tick                                 3624801000                       # Number of ticks from beginning of simulation (restored from checkpoints and never reset)
host_inst_rate                                 122831                       # Simulator instruction rate (inst/s)
host_mem_usage                               34225300                       # Number of bytes of host memory used
host_op_rate                                   256121                       # Simulator op (including micro ops) rate (op/s)
host_seconds                                     8.15                       # Real time elapsed on the host
host_tick_rate                              444638200                       # Simulator tick rate (ticks/s)
sim_freq                                 1000000000000                       # Frequency of simulated ticks
sim_insts                                     1001316                       # Number of instructions simulated
sim_ops                                       2087946                       # Number of ops (including micro ops) simulated
sim_seconds                                  0.003625                       # Number of seconds simulated
sim_ticks                                  3624801000                       # Number of ticks simulated
system.cpu.Branches                            130178                       # Number of branches fetched
system.cpu.committedInsts                     1001316                       # Number of instructions committed
system.cpu.committedOps                       2087946                       # Number of ops (including micro ops) committed
system.cpu.dtb.rdAccesses                      191787                       # TLB accesses on read requests
system.cpu.dtb.rdMisses                            33                       # TLB misses on read requests
system.cpu.dtb.wrAccesses                       52579                       # TLB accesses on write requests
system.cpu.dtb.wrMisses                            66                       # TLB misses on write requests
system.cpu.idle_fraction                            0                       # Percentage of idle cycles
system.cpu.itb.rdAccesses                           0                       # TLB accesses on read requests
system.cpu.itb.rdMisses                             0                       # TLB misses on read requests
system.cpu.itb.wrAccesses                     1432427                       # TLB accesses on write requests
system.cpu.itb.wrMisses                            95                       # TLB misses on write requests
system.cpu.not_idle_fraction                        1                       # Percentage of non-idle cycles
system.cpu.numCycles                          3624790                       # number of cpu cycles simulated
system.cpu.numWorkItemsCompleted                    0                       # number of work items this cpu completed
system.cpu.numWorkItemsStarted                      0                       # number of work items this cpu started
system.cpu.num_busy_cycles                    3624790                       # Number of busy cycles
system.cpu.num_cc_register_reads              1162574                       # number of times the CC registers were read
system.cpu.num_cc_register_writes              616459                       # number of times the CC registers were written
system.cpu.num_conditional_control_insts       103970                       # number of instructions that are conditional controls
system.cpu.num_fp_alu_accesses                 567534                       # Number of float alu accesses
system.cpu.num_fp_insts                        567534                       # number of float instructions
system.cpu.num_fp_register_reads               988378                       # number of times the floating registers were read
system.cpu.num_fp_register_writes              539971                       # number of times the floating registers were written
system.cpu.num_func_calls                       16395                       # number of times a function call or return occured
system.cpu.num_idle_cycles                          0                       # Number of idle cycles
system.cpu.num_int_alu_accesses               1647873                       # Number of integer alu accesses
system.cpu.num_int_insts                      1647873                       # number of integer instructions
system.cpu.num_int_register_reads             3323952                       # number of times the integer registers were read
system.cpu.num_int_register_writes            1547830                       # number of times the integer registers were written
system.cpu.num_load_insts                      191781                       # Number of load instructions
system.cpu.num_mem_refs                        244357                       # number of memory refs
system.cpu.num_store_insts                      52576                       # Number of store instructions
system.cpu.num_vec_alu_accesses                     0                       # Number of vector alu accesses
system.cpu.num_vec_insts                            0                       # number of vector instructions
system.cpu.num_vec_register_reads                   0                       # number of times the vector registers were read
system.cpu.num_vec_register_writes                  0                       # number of times the vector registers were written
system.cpu.op_class::No_OpClass                 18760      0.90%      0.90% # Class of executed instruction
system.cpu.op_class::IntAlu                   1370578     65.64%     66.54% # Class of executed instruction
system.cpu.op_class::IntMult                     1361      0.07%     66.61% # Class of executed instruction
system.cpu.op_class::IntDiv                     95123      4.56%     71.16% # Class of executed instruction
system.cpu.op_class::FloatAdd                   51745      2.48%     73.64% # Class of executed instruction
system.cpu.op_class::FloatCmp                       0      0.00%     73.64% # Class of executed instruction
system.cpu.op_class::FloatCvt                       0      0.00%     73.64% # Class of executed instruction
system.cpu.op_class::FloatMult                      0      0.00%     73.64% # Class of executed instruction
system.cpu.op_class::FloatMultAcc                   0      0.00%     73.64% # Class of executed instruction
system.cpu.op_class::FloatDiv                       0      0.00%     73.64% # Class of executed instruction
system.cpu.op_class::FloatMisc                      0      0.00%     73.64% # Class of executed instruction
system.cpu.op_class::FloatSqrt                      0      0.00%     73.64% # Class of executed instruction
system.cpu.op_class::SimdAdd                      916      0.04%     73.68% # Class of executed instruction
system.cpu.op_class::SimdAddAcc                     0      0.00%     73.68% # Class of executed instruction
system.cpu.op_class::SimdAlu                    30648      1.47%     75.15% # Class of executed instruction
system.cpu.op_class::SimdCmp                        0      0.00%     75.15% # Class of executed instruction
system.cpu.op_class::SimdCvt                     2058      0.10%     75.25% # Class of executed instruction
system.cpu.op_class::SimdMisc                   37779      1.81%     77.06% # Class of executed instruction
system.cpu.op_class::SimdMult                       0      0.00%     77.06% # Class of executed instruction
system.cpu.op_class::SimdMultAcc                    0      0.00%     77.06% # Class of executed instruction
system.cpu.op_class::SimdShift                    592      0.03%     77.09% # Class of executed instruction
system.cpu.op_class::SimdShiftAcc                   0      0.00%     77.09% # Class of executed instruction
system.cpu.op_class::SimdDiv                        0      0.00%     77.09% # Class of executed instruction
system.cpu.op_class::SimdSqrt                       0      0.00%     77.09% # Class of executed instruction
system.cpu.op_class::SimdFloatAdd              109561      5.25%     82.33% # Class of executed instruction
system.cpu.op_class::SimdFloatAlu                   0      0.00%     82.33% # Class of executed instruction
system.cpu.op_class::SimdFloatCmp                   0      0.00%     82.33% # Class of executed instruction
system.cpu.op_class::SimdFloatCvt               29214      1.40%     83.73% # Class of executed instruction
system.cpu.op_class::SimdFloatDiv               14558      0.70%     84.43% # Class of executed instruction
system.cpu.op_class::SimdFloatMisc                  0      0.00%     84.43% # Class of executed instruction
system.cpu.op_class::SimdFloatMult              80725      3.87%     88.30% # Class of executed instruction
system.cpu.op_class::SimdFloatMultAcc               0      0.00%     88.30% # Class of executed instruction
system.cpu.op_class::SimdFloatSqrt                  0      0.00%     88.30% # Class of executed instruction
system.cpu.op_class::SimdReduceAdd                  0      0.00%     88.30% # Class of executed instruction
system.cpu.op_class::SimdReduceAlu                  0      0.00%     88.30% # Class of executed instruction
system.cpu.op_class::SimdReduceCmp                  0      0.00%     88.30% # Class of executed instruction
system.cpu.op_class::SimdFloatReduceAdd             0      0.00%     88.30% # Class of executed instruction
system.cpu.op_class::SimdFloatReduceCmp             0      0.00%     88.30% # Class of executed instruction
system.cpu.op_class::SimdAes                        0      0.00%     88.30% # Class of executed instruction
system.cpu.op_class::SimdAesMix                     0      0.00%     88.30% # Class of executed instruction
system.cpu.op_class::SimdSha1Hash                   0      0.00%     88.30% # Class of executed instruction
system.cpu.op_class::SimdSha1Hash2                  0      0.00%     88.30% # Class of executed instruction
system.cpu.op_class::SimdSha256Hash                 0      0.00%     88.30% # Class of executed instruction
system.cpu.op_class::SimdSha256Hash2                0      0.00%     88.30% # Class of executed instruction
system.cpu.op_class::SimdShaSigma2                  0      0.00%     88.30% # Class of executed instruction
system.cpu.op_class::SimdShaSigma3                  0      0.00%     88.30% # Class of executed instruction
system.cpu.op_class::SimdPredAlu                    0      0.00%     88.30% # Class of executed instruction
system.cpu.op_class::MemRead                    87347      4.18%     92.48% # Class of executed instruction
system.cpu.op_class::MemWrite                   48018      2.30%     94.78% # Class of executed instruction
system.cpu.op_class::FloatMemRead              104434      5.00%     99.78% # Class of executed instruction
system.cpu.op_class::FloatMemWrite               4558      0.22%    100.00% # Class of executed instruction
system.cpu.op_class::IprAccess                      0      0.00%    100.00% # Class of executed instruction
system.cpu.op_class::InstPrefetch                   0      0.00%    100.00% # Class of executed instruction
system.cpu.op_class::total                    2087975                       # Class of executed instruction
system.cpu.workload.numSyscalls                    23                       # Number of system calls
system.dynamic_cache.flushTicks                     0                       # Ticks taken to flush
system.dynamic_cache.numFlushes                     0                       # Number of Flushes Taken
system.cache_small.demand_hits::.cpu.inst          231                       # number of demand (read+write) hits
system.cache_small.demand_hits::.cpu.data          945                       # number of demand (read+write) hits
system.cache_small.demand_hits::total            1176                       # number of demand (read+write) hits
system.cache_small.overall_hits::.cpu.inst          231                       # number of overall hits
system.cache_small.overall_hits::.cpu.data          945                       # number of overall hits
system.cache_small.overall_hits::total           1176                       # number of overall hits
system.cache_small.demand_misses::.cpu.inst         1197                       # number of demand (read+write) misses
system.cache_small.demand_misses::.cpu.data         1827                       # number of demand (read+write) misses
system.cache_small.demand_misses::total          3024                       # number of demand (read+write) misses
system.cache_small.overall_misses::.cpu.inst         1197                       # number of overall misses
system.cache_small.overall_misses::.cpu.data         1827                       # number of overall misses
system.cache_small.overall_misses::total         3024                       # number of overall misses
system.cache_small.demand_miss_latency::.cpu.inst     70546000                       # number of demand (read+write) miss cycles
system.cache_small.demand_miss_latency::.cpu.data    111621000                       # number of demand (read+write) miss cycles
system.cache_small.demand_miss_latency::total    182167000                       # number of demand (read+write) miss cycles
system.cache_small.overall_miss_latency::.cpu.inst     70546000                       # number of overall miss cycles
system.cache_small.overall_miss_latency::.cpu.data    111621000                       # number of overall miss cycles
system.cache_small.overall_miss_latency::total    182167000                       # number of overall miss cycles
system.cache_small.demand_accesses::.cpu.inst         1428                       # number of demand (read+write) accesses
system.cache_small.demand_accesses::.cpu.data         2772                       # number of demand (read+write) accesses
system.cache_small.demand_accesses::total         4200                       # number of demand (read+write) accesses
system.cache_small.overall_accesses::.cpu.inst         1428                       # number of overall (read+write) accesses
system.cache_small.overall_accesses::.cpu.data         2772                       # number of overall (read+write) accesses
system.cache_small.overall_accesses::total         4200                       # number of overall (read+write) accesses
system.cache_small.demand_miss_rate::.cpu.inst     0.838235                       # miss rate for demand accesses
system.cache_small.demand_miss_rate::.cpu.data     0.659091                       # miss rate for demand accesses
system.cache_small.demand_miss_rate::total     0.720000                       # miss rate for demand accesses
system.cache_small.overall_miss_rate::.cpu.inst     0.838235                       # miss rate for overall accesses
system.cache_small.overall_miss_rate::.cpu.data     0.659091                       # miss rate for overall accesses
system.cache_small.overall_miss_rate::total     0.720000                       # miss rate for overall accesses
system.cache_small.demand_avg_miss_latency::.cpu.inst 58935.672515                       # average overall miss latency
system.cache_small.demand_avg_miss_latency::.cpu.data 61095.238095                       # average overall miss latency
system.cache_small.demand_avg_miss_latency::total 60240.410053                       # average overall miss latency
system.cache_small.overall_avg_miss_latency::.cpu.inst 58935.672515                       # average overall miss latency
system.cache_small.overall_avg_miss_latency::.cpu.data 61095.238095                       # average overall miss latency
system.cache_small.overall_avg_miss_latency::total 60240.410053                       # average overall miss latency
system.cache_small.blocked_cycles::no_mshrs            0                       # number of cycles access was blocked
system.cache_small.blocked_cycles::no_targets            0                       # number of cycles access was blocked
system.cache_small.blocked::no_mshrs                0                       # number of cycles access was blocked
system.cache_small.blocked::no_targets              0                       # number of cycles access was blocked
system.cache_small.avg_blocked_cycles::no_mshrs          nan                       # average number of cycles each access was blocked
system.cache_small.avg_blocked_cycles::no_targets          nan                       # average number of cycles each access was blocked
system.cache_small.writebacks::.writebacks           60                       # number of writebacks
system.cache_small.writebacks::total               60                       # number of writebacks
system.cache_small.demand_mshr_misses::.cpu.inst         1197                       # number of demand (read+write) MSHR misses
system.cache_small.demand_mshr_misses::.cpu.data         1827                       # number of demand (read+write) MSHR misses
system.cache_small.demand_mshr_misses::total         3024                       # number of demand (read+write) MSHR misses
system.cache_small.overall_mshr_misses::.cpu.inst         1197                       # number of overall MSHR misses
system.cache_small.overall_mshr_misses::.cpu.data         1827                       # number of overall MSHR misses
system.cache_small.overall_mshr_misses::total         3024                       # number of overall MSHR misses
system.cache_small.demand_mshr_miss_latency::.cpu.inst     68152000                       # number of demand (read+write) MSHR miss cycles
system.cache_small.demand_mshr_miss_latency::.cpu.data    107967000                       # number of demand (read+write) MSHR miss cycles
system.cache_small.demand_mshr_miss_latency::total    176119000                       # number of demand (read+write) MSHR miss cycles
system.cache_small.overall_mshr_miss_latency::.cpu.inst     68152000                       # number of overall MSHR miss cycles
system.cache_small.overall_mshr_miss_latency::.cpu.data    107967000                       # number of overall MSHR miss cycles
system.cache_small.overall_mshr_miss_latency::total    176119000                       # number of overall MSHR miss cycles
system.cache_small.demand_mshr_miss_rate::.cpu.inst     0.838235                       # mshr miss rate for demand accesses
system.cache_small.demand_mshr_miss_rate::.cpu.data     0.659091                       # mshr miss rate for demand accesses
system.cache_small.demand_mshr_miss_rate::total     0.720000                       # mshr miss rate for demand accesses
system.cache_small.overall_mshr_miss_rate::.cpu.inst     0.838235                       # mshr miss rate for overall accesses
system.cache_small.overall_mshr_miss_rate::.cpu.data     0.659091                       # mshr miss rate for overall accesses
system.cache_small.overall_mshr_miss_rate::total     0.720000                       # mshr miss rate for overall accesses
system.cache_small.demand_avg_mshr_miss_latency::.cpu.inst 56935.672515                       # average overall mshr miss latency
system.cache_small.demand_avg_mshr_miss_latency::.cpu.data 59095.238095                       # average overall mshr miss latency
system.cache_small.demand_avg_mshr_miss_latency::total 58240.410053                       # average overall mshr miss latency
system.cache_small.overall_avg_mshr_miss_latency::.cpu.inst 56935.672515                       # average overall mshr miss latency
system.cache_small.overall_avg_mshr_miss_latency::.cpu.data 59095.238095                       # average overall mshr miss latency
system.cache_small.overall_avg_mshr_miss_latency::total 58240.410053                       # average overall mshr miss latency
system.cache_small.replacements                   379                       # number of replacements
system.cache_small.ReadReq_hits::.cpu.inst          231                       # number of ReadReq hits
system.cache_small.ReadReq_hits::.cpu.data          945                       # number of ReadReq hits
system.cache_small.ReadReq_hits::total           1176                       # number of ReadReq hits
system.cache_small.ReadReq_misses::.cpu.inst         1197                       # number of ReadReq misses
system.cache_small.ReadReq_misses::.cpu.data         1827                       # number of ReadReq misses
system.cache_small.ReadReq_misses::total         3024                       # number of ReadReq misses
system.cache_small.ReadReq_miss_latency::.cpu.inst     70546000                       # number of ReadReq miss cycles
system.cache_small.ReadReq_miss_latency::.cpu.data    111621000                       # number of ReadReq miss cycles
system.cache_small.ReadReq_miss_latency::total    182167000                       # number of ReadReq miss cycles
system.cache_small.ReadReq_accesses::.cpu.inst         1428                       # number of ReadReq accesses(hits+misses)
system.cache_small.ReadReq_accesses::.cpu.data         2772                       # number of ReadReq accesses(hits+misses)
system.cache_small.ReadReq_accesses::total         4200                       # number of ReadReq accesses(hits+misses)
system.cache_small.ReadReq_miss_rate::.cpu.inst     0.838235                       # miss rate for ReadReq accesses
system.cache_small.ReadReq_miss_rate::.cpu.data     0.659091                       # miss rate for ReadReq accesses
system.cache_small.ReadReq_miss_rate::total     0.720000                       # miss rate for ReadReq accesses
system.cache_small.ReadReq_avg_miss_latency::.cpu.inst 58935.672515                       # average ReadReq miss latency
system.cache_small.ReadReq_avg_miss_latency::.cpu.data 61095.238095                       # average ReadReq miss latency
system.cache_small.ReadReq_avg_miss_latency::total 60240.410053                       # average ReadReq miss latency
system.cache_small.ReadReq_mshr_misses::.cpu.inst         1197                       # number of ReadReq MSHR misses
system.cache_small.ReadReq_mshr_misses::.cpu.data         1827                       # number of ReadReq MSHR misses
system.cache_small.ReadReq_mshr_misses::total         3024                       # number of ReadReq MSHR misses
system.cache_small.ReadReq_mshr_miss_latency::.cpu.inst     68152000                       # number of ReadReq MSHR miss cycles
system.cache_small.ReadReq_mshr_miss_latency::.cpu.data    107967000                       # number of ReadReq MSHR miss cycles
system.cache_small.ReadReq_mshr_miss_latency::total    176119000                       # number of ReadReq MSHR miss cycles
system.cache_small.ReadReq_mshr_miss_rate::.cpu.inst     0.838235                       # mshr miss rate for ReadReq accesses
system.cache_small.ReadReq_mshr_miss_rate::.cpu.data     0.659091                       # mshr miss rate for ReadReq accesses
system.cache_small.ReadReq_mshr_miss_rate::total     0.720000                       # mshr miss rate for ReadReq accesses
system.cache_small.ReadReq_avg_mshr_miss_latency::.cpu.inst 56935.672515                       # average ReadReq mshr miss latency
system.cache_small.ReadReq_avg_mshr_miss_latency::.cpu.data 59095.238095                       # average ReadReq mshr miss latency
system.cache_small.ReadReq_avg_mshr_miss_latency::total 58240.410053                       # average ReadReq mshr miss latency
system.cache_small.WritebackDirty_hits::.writebacks         1681                       # number of WritebackDirty hits
system.cache_small.WritebackDirty_hits::total         1681                       # number of WritebackDirty hits
system.cache_small.WritebackDirty_accesses::.writebacks         1681                       # number of WritebackDirty accesses(hits+misses)
system.cache_small.WritebackDirty_accesses::total         1681                       # number of WritebackDirty accesses(hits+misses)
system.cache_small.power_state.pwrStateResidencyTicks::UNDEFINED   3624801000                       # Cumulative time (in ticks) in various power states
system.cache_small.tags.tagsinuse         2183.875610                       # Cycle average of tags in use
system.cache_small.tags.total_refs                567                       # Total number of references to valid blocks.
system.cache_small.tags.sampled_refs              379                       # Sample count of references to valid blocks.
system.cache_small.tags.avg_refs             1.496042                       # Average number of references to valid blocks.
system.cache_small.tags.warmup_cycle            76000                       # Cycle when the warmup percentage was hit.
system.cache_small.tags.occ_blocks::.writebacks    33.321618                       # Average occupied blocks per requestor
system.cache_small.tags.occ_blocks::.cpu.inst   868.251278                       # Average occupied blocks per requestor
system.cache_small.tags.occ_blocks::.cpu.data  1282.302714                       # Average occupied blocks per requestor
system.cache_small.tags.occ_percent::.writebacks     0.002034                       # Average percentage of cache occupancy
system.cache_small.tags.occ_percent::.cpu.inst     0.052994                       # Average percentage of cache occupancy
system.cache_small.tags.occ_percent::.cpu.data     0.078266                       # Average percentage of cache occupancy
system.cache_small.tags.occ_percent::total     0.133293                       # Average percentage of cache occupancy
system.cache_small.tags.occ_task_id_blocks::1024         2692                       # Occupied blocks per task id
system.cache_small.tags.age_task_id_blocks_1024::0            2                       # Occupied blocks per task id
system.cache_small.tags.age_task_id_blocks_1024::1           20                       # Occupied blocks per task id
system.cache_small.tags.age_task_id_blocks_1024::2          185                       # Occupied blocks per task id
system.cache_small.tags.age_task_id_blocks_1024::3         2485                       # Occupied blocks per task id
system.cache_small.tags.occ_task_id_percent::1024     0.164307                       # Percentage of cache occupancy per task id
system.cache_small.tags.tag_accesses             8952                       # Number of tag accesses
system.cache_small.tags.data_accesses            8952                       # Number of data accesses
system.cache_small.tags.power_state.pwrStateResidencyTicks::UNDEFINED   3624801000                       # Cumulative time (in ticks) in various power states
system.icache.demand_hits::.cpu.inst          1430823                       # number of demand (read+write) hits
system.icache.demand_hits::total              1430823                       # number of demand (read+write) hits
system.icache.overall_hits::.cpu.inst         1430823                       # number of overall hits
system.icache.overall_hits::total             1430823                       # number of overall hits
system.icache.demand_misses::.cpu.inst           1604                       # number of demand (read+write) misses
system.icache.demand_misses::total               1604                       # number of demand (read+write) misses
system.icache.overall_misses::.cpu.inst          1604                       # number of overall misses
system.icache.overall_misses::total              1604                       # number of overall misses
system.icache.demand_miss_latency::.cpu.inst     97990000                       # number of demand (read+write) miss cycles
system.icache.demand_miss_latency::total     97990000                       # number of demand (read+write) miss cycles
system.icache.overall_miss_latency::.cpu.inst     97990000                       # number of overall miss cycles
system.icache.overall_miss_latency::total     97990000                       # number of overall miss cycles
system.icache.demand_accesses::.cpu.inst      1432427                       # number of demand (read+write) accesses
system.icache.demand_accesses::total          1432427                       # number of demand (read+write) accesses
system.icache.overall_accesses::.cpu.inst      1432427                       # number of overall (read+write) accesses
system.icache.overall_accesses::total         1432427                       # number of overall (read+write) accesses
system.icache.demand_miss_rate::.cpu.inst     0.001120                       # miss rate for demand accesses
system.icache.demand_miss_rate::total        0.001120                       # miss rate for demand accesses
system.icache.overall_miss_rate::.cpu.inst     0.001120                       # miss rate for overall accesses
system.icache.overall_miss_rate::total       0.001120                       # miss rate for overall accesses
system.icache.demand_avg_miss_latency::.cpu.inst 61091.022444                       # average overall miss latency
system.icache.demand_avg_miss_latency::total 61091.022444                       # average overall miss latency
system.icache.overall_avg_miss_latency::.cpu.inst 61091.022444                       # average overall miss latency
system.icache.overall_avg_miss_latency::total 61091.022444                       # average overall miss latency
system.icache.blocked_cycles::no_mshrs              0                       # number of cycles access was blocked
system.icache.blocked_cycles::no_targets            0                       # number of cycles access was blocked
system.icache.blocked::no_mshrs                     0                       # number of cycles access was blocked
system.icache.blocked::no_targets                   0                       # number of cycles access was blocked
system.icache.avg_blocked_cycles::no_mshrs          nan                       # average number of cycles each access was blocked
system.icache.avg_blocked_cycles::no_targets          nan                       # average number of cycles each access was blocked
system.icache.demand_mshr_misses::.cpu.inst         1604                       # number of demand (read+write) MSHR misses
system.icache.demand_mshr_misses::total          1604                       # number of demand (read+write) MSHR misses
system.icache.overall_mshr_misses::.cpu.inst         1604                       # number of overall MSHR misses
system.icache.overall_mshr_misses::total         1604                       # number of overall MSHR misses
system.icache.demand_mshr_miss_latency::.cpu.inst     94782000                       # number of demand (read+write) MSHR miss cycles
system.icache.demand_mshr_miss_latency::total     94782000                       # number of demand (read+write) MSHR miss cycles
system.icache.overall_mshr_miss_latency::.cpu.inst     94782000                       # number of overall MSHR miss cycles
system.icache.overall_mshr_miss_latency::total     94782000                       # number of overall MSHR miss cycles
system.icache.demand_mshr_miss_rate::.cpu.inst     0.001120                       # mshr miss rate for demand accesses
system.icache.demand_mshr_miss_rate::total     0.001120                       # mshr miss rate for demand accesses
system.icache.overall_mshr_miss_rate::.cpu.inst     0.001120                       # mshr miss rate for overall accesses
system.icache.overall_mshr_miss_rate::total     0.001120                       # mshr miss rate for overall accesses
system.icache.demand_avg_mshr_miss_latency::.cpu.inst 59091.022444                       # average overall mshr miss latency
system.icache.demand_avg_mshr_miss_latency::total 59091.022444                       # average overall mshr miss latency
system.icache.overall_avg_mshr_miss_latency::.cpu.inst 59091.022444                       # average overall mshr miss latency
system.icache.overall_avg_mshr_miss_latency::total 59091.022444                       # average overall mshr miss latency
system.icache.replacements                       1349                       # number of replacements
system.icache.ReadReq_hits::.cpu.inst         1430823                       # number of ReadReq hits
system.icache.ReadReq_hits::total             1430823                       # number of ReadReq hits
system.icache.ReadReq_misses::.cpu.inst          1604                       # number of ReadReq misses
system.icache.ReadReq_misses::total              1604                       # number of ReadReq misses
system.icache.ReadReq_miss_latency::.cpu.inst     97990000                       # number of ReadReq miss cycles
system.icache.ReadReq_miss_latency::total     97990000                       # number of ReadReq miss cycles
system.icache.ReadReq_accesses::.cpu.inst      1432427                       # number of ReadReq accesses(hits+misses)
system.icache.ReadReq_accesses::total         1432427                       # number of ReadReq accesses(hits+misses)
system.icache.ReadReq_miss_rate::.cpu.inst     0.001120                       # miss rate for ReadReq accesses
system.icache.ReadReq_miss_rate::total       0.001120                       # miss rate for ReadReq accesses
system.icache.ReadReq_avg_miss_latency::.cpu.inst 61091.022444                       # average ReadReq miss latency
system.icache.ReadReq_avg_miss_latency::total 61091.022444                       # average ReadReq miss latency
system.icache.ReadReq_mshr_misses::.cpu.inst         1604                       # number of ReadReq MSHR misses
system.icache.ReadReq_mshr_misses::total         1604                       # number of ReadReq MSHR misses
system.icache.ReadReq_mshr_miss_latency::.cpu.inst     94782000                       # number of ReadReq MSHR miss cycles
system.icache.ReadReq_mshr_miss_latency::total     94782000                       # number of ReadReq MSHR miss cycles
system.icache.ReadReq_mshr_miss_rate::.cpu.inst     0.001120                       # mshr miss rate for ReadReq accesses
system.icache.ReadReq_mshr_miss_rate::total     0.001120                       # mshr miss rate for ReadReq accesses
system.icache.ReadReq_avg_mshr_miss_latency::.cpu.inst 59091.022444                       # average ReadReq mshr miss latency
system.icache.ReadReq_avg_mshr_miss_latency::total 59091.022444                       # average ReadReq mshr miss latency
system.icache.power_state.pwrStateResidencyTicks::UNDEFINED   3624801000                       # Cumulative time (in ticks) in various power states
system.icache.tags.tagsinuse               250.777132                       # Cycle average of tags in use
system.icache.tags.total_refs                  203318                       # Total number of references to valid blocks.
system.icache.tags.sampled_refs                  1349                       # Sample count of references to valid blocks.
system.icache.tags.avg_refs                150.717569                       # Average number of references to valid blocks.
system.icache.tags.warmup_cycle                 82000                       # Cycle when the warmup percentage was hit.
system.icache.tags.occ_blocks::.cpu.inst   250.777132                       # Average occupied blocks per requestor
system.icache.tags.occ_percent::.cpu.inst     0.979598                       # Average percentage of cache occupancy
system.icache.tags.occ_percent::total        0.979598                       # Average percentage of cache occupancy
system.icache.tags.occ_task_id_blocks::1024          255                       # Occupied blocks per task id
system.icache.tags.age_task_id_blocks_1024::3          255                       # Occupied blocks per task id
system.icache.tags.occ_task_id_percent::1024     0.996094                       # Percentage of cache occupancy per task id
system.icache.tags.tag_accesses               1434031                       # Number of tag accesses
system.icache.tags.data_accesses              1434031                       # Number of data accesses
system.icache.tags.power_state.pwrStateResidencyTicks::UNDEFINED   3624801000                       # Cumulative time (in ticks) in various power states
system.membus.trans_dist::ReadReq                3024                       # Transaction distribution
system.membus.trans_dist::ReadResp               3024                       # Transaction distribution
system.membus.trans_dist::WritebackDirty           60                       # Transaction distribution
system.membus.pkt_count_system.cache_small.mem_side::system.mem_ctrl.port         6108                       # Packet count per connected master and slave (bytes)
system.membus.pkt_count_system.cache_small.mem_side::total         6108                       # Packet count per connected master and slave (bytes)
system.membus.pkt_count::total                   6108                       # Packet count per connected master and slave (bytes)
system.membus.pkt_size_system.cache_small.mem_side::system.mem_ctrl.port       197376                       # Cumulative packet size per connected master and slave (bytes)
system.membus.pkt_size_system.cache_small.mem_side::total       197376                       # Cumulative packet size per connected master and slave (bytes)
system.membus.pkt_size::total                  197376                       # Cumulative packet size per connected master and slave (bytes)
system.membus.reqLayer2.occupancy             3324000                       # Layer occupancy (ticks)
system.membus.reqLayer2.utilization               0.1                       # Layer utilization (%)
system.membus.respLayer1.occupancy           16134250                       # Layer occupancy (ticks)
system.membus.respLayer1.utilization              0.4                       # Layer utilization (%)
system.membus.power_state.pwrStateResidencyTicks::UNDEFINED   3624801000                       # Cumulative time (in ticks) in various power states
system.mem_ctrl.bytes_read::.cpu.inst           76608                       # Number of bytes read from this memory
system.mem_ctrl.bytes_read::.cpu.data          116928                       # Number of bytes read from this memory
system.mem_ctrl.bytes_read::total              193536                       # Number of bytes read from this memory
system.mem_ctrl.bytes_inst_read::.cpu.inst        76608                       # Number of instructions bytes read from this memory
system.mem_ctrl.bytes_inst_read::total          76608                       # Number of instructions bytes read from this memory
system.mem_ctrl.bytes_written::.writebacks         3840                       # Number of bytes written to this memory
system.mem_ctrl.bytes_written::total             3840                       # Number of bytes written to this memory
system.mem_ctrl.num_reads::.cpu.inst             1197                       # Number of read requests responded to by this memory
system.mem_ctrl.num_reads::.cpu.data             1827                       # Number of read requests responded to by this memory
system.mem_ctrl.num_reads::total                 3024                       # Number of read requests responded to by this memory
system.mem_ctrl.num_writes::.writebacks            60                       # Number of write requests responded to by this memory
system.mem_ctrl.num_writes::total                  60                       # Number of write requests responded to by this memory
system.mem_ctrl.bw_read::.cpu.inst           21134402                       # Total read bandwidth from this memory (bytes/s)
system.mem_ctrl.bw_read::.cpu.data           32257771                       # Total read bandwidth from this memory (bytes/s)
system.mem_ctrl.bw_read::total               53392172                       # Total read bandwidth from this memory (bytes/s)
system.mem_ctrl.bw_inst_read::.cpu.inst      21134402                       # Instruction read bandwidth from this memory (bytes/s)
system.mem_ctrl.bw_inst_read::total          21134402                       # Instruction read bandwidth from this memory (bytes/s)
system.mem_ctrl.bw_write::.writebacks         1059369                       # Write bandwidth from this memory (bytes/s)
system.mem_ctrl.bw_write::total               1059369                       # Write bandwidth from this memory (bytes/s)
system.mem_ctrl.bw_total::.writebacks         1059369                       # Total bandwidth to/from this memory (bytes/s)
system.mem_ctrl.bw_total::.cpu.inst          21134402                       # Total bandwidth to/from this memory (bytes/s)
system.mem_ctrl.bw_total::.cpu.data          32257771                       # Total bandwidth to/from this memory (bytes/s)
system.mem_ctrl.bw_total::total              54451541                       # Total bandwidth to/from this memory (bytes/s)
system.mem_ctrl.avgPriority_.writebacks::samples        59.00                       # Average QoS priority value for accepted requests
system.mem_ctrl.avgPriority_.cpu.inst::samples      1197.00                       # Average QoS priority value for accepted requests
system.mem_ctrl.avgPriority_.cpu.data::samples      1822.00                       # Average QoS priority value for accepted requests
system.mem_ctrl.priorityMinLatency       0.000000018750                       # per QoS priority minimum request to response latency (s)
system.mem_ctrl.priorityMaxLatency       0.002682464500                       # per QoS priority maximum request to response latency (s)
system.mem_ctrl.numReadWriteTurnArounds             2                       # Number of turnarounds from READ to WRITE
system.mem_ctrl.numWriteReadTurnArounds             2                       # Number of turnarounds from WRITE to READ
system.mem_ctrl.numStayReadState                 7027                       # Number of times bus staying in READ state
system.mem_ctrl.numStayWriteState                  32                       # Number of times bus staying in WRITE state
system.mem_ctrl.readReqs                         3024                       # Number of read requests accepted
system.mem_ctrl.writeReqs                          60                       # Number of write requests accepted
system.mem_ctrl.readBursts                       3024                       # Number of DRAM read bursts, including those serviced by the write queue
system.mem_ctrl.writeBursts                        60                       # Number of DRAM write bursts, including those merged in the write queue
system.mem_ctrl.servicedByWrQ                       5                       # Number of DRAM read bursts serviced by the write queue
system.mem_ctrl.mergedWrBursts                      1                       # Number of DRAM write bursts merged with an existing one
system.mem_ctrl.neitherReadNorWriteReqs             0                       # Number of requests that are neither read nor write
system.mem_ctrl.perBankRdBursts::0                211                       # Per bank write bursts
system.mem_ctrl.perBankRdBursts::1                295                       # Per bank write bursts
system.mem_ctrl.perBankRdBursts::2                289                       # Per bank write bursts
system.mem_ctrl.perBankRdBursts::3                277                       # Per bank write bursts
system.mem_ctrl.perBankRdBursts::4                195                       # Per bank write bursts
system.mem_ctrl.perBankRdBursts::5                134                       # Per bank write bursts
system.mem_ctrl.perBankRdBursts::6                168                       # Per bank write bursts
system.mem_ctrl.perBankRdBursts::7                 83                       # Per bank write bursts
system.mem_ctrl.perBankRdBursts::8                 27                       # Per bank write bursts
system.mem_ctrl.perBankRdBursts::9                257                       # Per bank write bursts
system.mem_ctrl.perBankRdBursts::10               293                       # Per bank write bursts
system.mem_ctrl.perBankRdBursts::11               172                       # Per bank write bursts
system.mem_ctrl.perBankRdBursts::12               187                       # Per bank write bursts
system.mem_ctrl.perBankRdBursts::13               165                       # Per bank write bursts
system.mem_ctrl.perBankRdBursts::14               189                       # Per bank write bursts
system.mem_ctrl.perBankRdBursts::15                77                       # Per bank write bursts
system.mem_ctrl.perBankWrBursts::0                  0                       # Per bank write bursts
system.mem_ctrl.perBankWrBursts::1                 13                       # Per bank write bursts
system.mem_ctrl.perBankWrBursts::2                  0                       # Per bank write bursts
system.mem_ctrl.perBankWrBursts::3                  0                       # Per bank write bursts
system.mem_ctrl.perBankWrBursts::4                  0                       # Per bank write bursts
system.mem_ctrl.perBankWrBursts::5                  0                       # Per bank write bursts
system.mem_ctrl.perBankWrBursts::6                  3                       # Per bank write bursts
system.mem_ctrl.perBankWrBursts::7                  0                       # Per bank write bursts
system.mem_ctrl.perBankWrBursts::8                  0                       # Per bank write bursts
system.mem_ctrl.perBankWrBursts::9                  0                       # Per bank write bursts
system.mem_ctrl.perBankWrBursts::10                 0                       # Per bank write bursts
system.mem_ctrl.perBankWrBursts::11                 0                       # Per bank write bursts
system.mem_ctrl.perBankWrBursts::12                15                       # Per bank write bursts
system.mem_ctrl.perBankWrBursts::13                 1                       # Per bank write bursts
system.mem_ctrl.perBankWrBursts::14                 2                       # Per bank write bursts
system.mem_ctrl.perBankWrBursts::15                 0                       # Per bank write bursts
system.mem_ctrl.avgRdQLen                        1.00                       # Average read queue length when enqueuing
system.mem_ctrl.avgWrQLen                       23.55                       # Average write queue length when enqueuing
system.mem_ctrl.totQLat                      24804500                       # Total ticks spent queuing
system.mem_ctrl.totBusLat                    15095000                       # Total ticks spent in databus transfers
system.mem_ctrl.totMemAccLat                 81410750                       # Total ticks spent from burst creation until serviced by the DRAM
system.mem_ctrl.avgQLat                       8216.13                       # Average queueing delay per DRAM burst
system.mem_ctrl.avgBusLat                     5000.00                       # Average bus latency per DRAM burst
system.mem_ctrl.avgMemAccLat                 26966.13                       # Average memory access latency per DRAM burst
system.mem_ctrl.numRdRetry                          0                       # Number of times read queue was full causing retry
system.mem_ctrl.numWrRetry                          0                       # Number of times write queue was full causing retry
system.mem_ctrl.readRowHits                      2068                       # Number of row buffer hits during reads
system.mem_ctrl.writeRowHits                       29                       # Number of row buffer hits during writes
system.mem_ctrl.readRowHitRate                  68.50                       # Row buffer hit rate for reads
system.mem_ctrl.writeRowHitRate                 49.15                       # Row buffer hit rate for writes
system.mem_ctrl.readPktSize::0                      0                       # Read request sizes (log2)
system.mem_ctrl.readPktSize::1                      0                       # Read request sizes (log2)
system.mem_ctrl.readPktSize::2                      0                       # Read request sizes (log2)
system.mem_ctrl.readPktSize::3                      0                       # Read request sizes (log2)
system.mem_ctrl.readPktSize::4                      0                       # Read request sizes (log2)
system.mem_ctrl.readPktSize::5                      0                       # Read request sizes (log2)
system.mem_ctrl.readPktSize::6                   3024                       # Read request sizes (log2)
system.mem_ctrl.writePktSize::0                     0                       # Write request sizes (log2)
system.mem_ctrl.writePktSize::1                     0                       # Write request sizes (log2)
system.mem_ctrl.writePktSize::2                     0                       # Write request sizes (log2)
system.mem_ctrl.writePktSize::3                     0                       # Write request sizes (log2)
system.mem_ctrl.writePktSize::4                     0                       # Write request sizes (log2)
system.mem_ctrl.writePktSize::5                     0                       # Write request sizes (log2)
system.mem_ctrl.writePktSize::6                    60                       # Write request sizes (log2)
system.mem_ctrl.rdQLenPdf::0                     3019                       # What read queue length does an incoming req see
system.mem_ctrl.rdQLenPdf::1                        0                       # What read queue length does an incoming req see
system.mem_ctrl.rdQLenPdf::2                        0                       # What read queue length does an incoming req see
system.mem_ctrl.rdQLenPdf::3                        0                       # What read queue length does an incoming req see
system.mem_ctrl.rdQLenPdf::4                        0                       # What read queue length does an incoming req see
system.mem_ctrl.rdQLenPdf::5                        0                       # What read queue length does an incoming req see
system.mem_ctrl.rdQLenPdf::6                        0                       # What read queue length does an incoming req see
system.mem_ctrl.rdQLenPdf::7                        0                       # What read queue length does an incoming req see
system.mem_ctrl.rdQLenPdf::8                        0                       # What read queue length does an incoming req see
system.mem_ctrl.rdQLenPdf::9                        0                       # What read queue length does an incoming req see
system.mem_ctrl.rdQLenPdf::10                       0                       # What read queue length does an incoming req see
system.mem_ctrl.rdQLenPdf::11                       0                       # What read queue length does an incoming req see
system.mem_ctrl.rdQLenPdf::12                       0                       # What read queue length does an incoming req see
system.mem_ctrl.rdQLenPdf::13                       0                       # What read queue length does an incoming req see
system.mem_ctrl.rdQLenPdf::14                       0                       # What read queue length does an incoming req see
system.mem_ctrl.rdQLenPdf::15                       0                       # What read queue length does an incoming req see
system.mem_ctrl.rdQLenPdf::16                       0                       # What read queue length does an incoming req see
system.mem_ctrl.rdQLenPdf::17                       0                       # What read queue length does an incoming req see
system.mem_ctrl.rdQLenPdf::18                       0                       # What read queue length does an incoming req see
system.mem_ctrl.rdQLenPdf::19                       0                       # What read queue length does an incoming req see
system.mem_ctrl.rdQLenPdf::20                       0                       # What read queue length does an incoming req see
system.mem_ctrl.rdQLenPdf::21                       0                       # What read queue length does an incoming req see
system.mem_ctrl.rdQLenPdf::22                       0                       # What read queue length does an incoming req see
system.mem_ctrl.rdQLenPdf::23                       0                       # What read queue length does an incoming req see
system.mem_ctrl.rdQLenPdf::24                       0                       # What read queue length does an incoming req see
system.mem_ctrl.rdQLenPdf::25                       0                       # What read queue length does an incoming req see
system.mem_ctrl.rdQLenPdf::26                       0                       # What read queue length does an incoming req see
system.mem_ctrl.rdQLenPdf::27                       0                       # What read queue length does an incoming req see
system.mem_ctrl.rdQLenPdf::28                       0                       # What read queue length does an incoming req see
system.mem_ctrl.rdQLenPdf::29                       0                       # What read queue length does an incoming req see
system.mem_ctrl.rdQLenPdf::30                       0                       # What read queue length does an incoming req see
system.mem_ctrl.rdQLenPdf::31                       0                       # What read queue length does an incoming req see
system.mem_ctrl.wrQLenPdf::0                        1                       # What write queue length does an incoming req see
system.mem_ctrl.wrQLenPdf::1                        1                       # What write queue length does an incoming req see
system.mem_ctrl.wrQLenPdf::2                        1                       # What write queue length does an incoming req see
system.mem_ctrl.wrQLenPdf::3                        1                       # What write queue length does an incoming req see
system.mem_ctrl.wrQLenPdf::4                        1                       # What write queue length does an incoming req see
system.mem_ctrl.wrQLenPdf::5                        1                       # What write queue length does an incoming req see
system.mem_ctrl.wrQLenPdf::6                        1                       # What write queue length does an incoming req see
system.mem_ctrl.wrQLenPdf::7                        1                       # What write queue length does an incoming req see
system.mem_ctrl.wrQLenPdf::8                        1                       # What write queue length does an incoming req see
system.mem_ctrl.wrQLenPdf::9                        1                       # What write queue length does an incoming req see
system.mem_ctrl.wrQLenPdf::10                       1                       # What write queue length does an incoming req see
system.mem_ctrl.wrQLenPdf::11                       1                       # What write queue length does an incoming req see
system.mem_ctrl.wrQLenPdf::12                       1                       # What write queue length does an incoming req see
system.mem_ctrl.wrQLenPdf::13                       1                       # What write queue length does an incoming req see
system.mem_ctrl.wrQLenPdf::14                       1                       # What write queue length does an incoming req see
system.mem_ctrl.wrQLenPdf::15                       2                       # What write queue length does an incoming req see
system.mem_ctrl.wrQLenPdf::16                       2                       # What write queue length does an incoming req see
system.mem_ctrl.wrQLenPdf::17                       3                       # What write queue length does an incoming req see
system.mem_ctrl.wrQLenPdf::18                       3                       # What write queue length does an incoming req see
system.mem_ctrl.wrQLenPdf::19                       3                       # What write queue length does an incoming req see
system.mem_ctrl.wrQLenPdf::20                       3                       # What write queue length does an incoming req see
system.mem_ctrl.wrQLenPdf::21                       3                       # What write queue length does an incoming req see
system.mem_ctrl.wrQLenPdf::22                       3                       # What write queue length does an incoming req see
system.mem_ctrl.wrQLenPdf::23                       3                       # What write queue length does an incoming req see
system.mem_ctrl.wrQLenPdf::24                       3                       # What write queue length does an incoming req see
system.mem_ctrl.wrQLenPdf::25                       2                       # What write queue length does an incoming req see
system.mem_ctrl.wrQLenPdf::26                       2                       # What write queue length does an incoming req see
system.mem_ctrl.wrQLenPdf::27                       2                       # What write queue length does an incoming req see
system.mem_ctrl.wrQLenPdf::28                       2                       # What write queue length does an incoming req see
system.mem_ctrl.wrQLenPdf::29                       2                       # What write queue length does an incoming req see
system.mem_ctrl.wrQLenPdf::30                       2                       # What write queue length does an incoming req see
system.mem_ctrl.wrQLenPdf::31                       2                       # What write queue length does an incoming req see
system.mem_ctrl.wrQLenPdf::32                       2                       # What write queue length does an incoming req see
system.mem_ctrl.wrQLenPdf::33                       0                       # What write queue length does an incoming req see
system.mem_ctrl.wrQLenPdf::34                       0                       # What write queue length does an incoming req see
system.mem_ctrl.wrQLenPdf::35                       0                       # What write queue length does an incoming req see
system.mem_ctrl.wrQLenPdf::36                       0                       # What write queue length does an incoming req see
system.mem_ctrl.wrQLenPdf::37                       0                       # What write queue length does an incoming req see
system.mem_ctrl.wrQLenPdf::38                       0                       # What write queue length does an incoming req see
system.mem_ctrl.wrQLenPdf::39                       0                       # What write queue length does an incoming req see
system.mem_ctrl.wrQLenPdf::40                       0                       # What write queue length does an incoming req see
system.mem_ctrl.wrQLenPdf::41                       0                       # What write queue length does an incoming req see
system.mem_ctrl.wrQLenPdf::42                       0                       # What write queue length does an incoming req see
system.mem_ctrl.wrQLenPdf::43                       0                       # What write queue length does an incoming req see
system.mem_ctrl.wrQLenPdf::44                       0                       # What write queue length does an incoming req see
system.mem_ctrl.wrQLenPdf::45                       0                       # What write queue length does an incoming req see
system.mem_ctrl.wrQLenPdf::46                       0                       # What write queue length does an incoming req see
system.mem_ctrl.wrQLenPdf::47                       0                       # What write queue length does an incoming req see
system.mem_ctrl.wrQLenPdf::48                       0                       # What write queue length does an incoming req see
system.mem_ctrl.wrQLenPdf::49                       0                       # What write queue length does an incoming req see
system.mem_ctrl.wrQLenPdf::50                       0                       # What write queue length does an incoming req see
system.mem_ctrl.wrQLenPdf::51                       0                       # What write queue length does an incoming req see
system.mem_ctrl.wrQLenPdf::52                       0                       # What write queue length does an incoming req see
system.mem_ctrl.wrQLenPdf::53                       0                       # What write queue length does an incoming req see
system.mem_ctrl.wrQLenPdf::54                       0                       # What write queue length does an incoming req see
system.mem_ctrl.wrQLenPdf::55                       0                       # What write queue length does an incoming req see
system.mem_ctrl.wrQLenPdf::56                       0                       # What write queue length does an incoming req see
system.mem_ctrl.wrQLenPdf::57                       0                       # What write queue length does an incoming req see
system.mem_ctrl.wrQLenPdf::58                       0                       # What write queue length does an incoming req see
system.mem_ctrl.wrQLenPdf::59                       0                       # What write queue length does an incoming req see
system.mem_ctrl.wrQLenPdf::60                       0                       # What write queue length does an incoming req see
system.mem_ctrl.wrQLenPdf::61                       0                       # What write queue length does an incoming req see
system.mem_ctrl.wrQLenPdf::62                       0                       # What write queue length does an incoming req see
system.mem_ctrl.wrQLenPdf::63                       0                       # What write queue length does an incoming req see
system.mem_ctrl.bytesPerActivate::samples          956                       # Bytes accessed per row activation
system.mem_ctrl.bytesPerActivate::mean     204.384937                       # Bytes accessed per row activation
system.mem_ctrl.bytesPerActivate::gmean    133.454735                       # Bytes accessed per row activation
system.mem_ctrl.bytesPerActivate::stdev    247.353020                       # Bytes accessed per row activation
system.mem_ctrl.bytesPerActivate::0-127           389     40.69%     40.69% # Bytes accessed per row activation
system.mem_ctrl.bytesPerActivate::128-255          360     37.66%     78.35% # Bytes accessed per row activation
system.mem_ctrl.bytesPerActivate::256-383           77      8.05%     86.40% # Bytes accessed per row activation
system.mem_ctrl.bytesPerActivate::384-511           34      3.56%     89.96% # Bytes accessed per row activation
system.mem_ctrl.bytesPerActivate::512-639           16      1.67%     91.63% # Bytes accessed per row activation
system.mem_ctrl.bytesPerActivate::640-767            9      0.94%     92.57% # Bytes accessed per row activation
system.mem_ctrl.bytesPerActivate::768-895           11      1.15%     93.72% # Bytes accessed per row activation
system.mem_ctrl.bytesPerActivate::896-1023           10      1.05%     94.77% # Bytes accessed per row activation
system.mem_ctrl.bytesPerActivate::1024-1151           50      5.23%    100.00% # Bytes accessed per row activation
system.mem_ctrl.bytesPerActivate::total           956                       # Bytes accessed per row activation
system.mem_ctrl.rdPerTurnAround::samples            2                       # Reads before turning the bus around for writes
system.mem_ctrl.rdPerTurnAround::mean            1274                       # Reads before turning the bus around for writes
system.mem_ctrl.rdPerTurnAround::gmean    1100.997275                       # Reads before turning the bus around for writes
system.mem_ctrl.rdPerTurnAround::stdev     906.510893                       # Reads before turning the bus around for writes
system.mem_ctrl.rdPerTurnAround::576-639            1     50.00%     50.00% # Reads before turning the bus around for writes
system.mem_ctrl.rdPerTurnAround::1856-1919            1     50.00%    100.00% # Reads before turning the bus around for writes
system.mem_ctrl.rdPerTurnAround::total              2                       # Reads before turning the bus around for writes
system.mem_ctrl.wrPerTurnAround::samples            2                       # Writes before turning the bus around for reads
system.mem_ctrl.wrPerTurnAround::mean              17                       # Writes before turning the bus around for reads
system.mem_ctrl.wrPerTurnAround::gmean      16.970563                       # Writes before turning the bus around for reads
system.mem_ctrl.wrPerTurnAround::stdev       1.414214                       # Writes before turning the bus around for reads
system.mem_ctrl.wrPerTurnAround::16                 1     50.00%     50.00% # Writes before turning the bus around for reads
system.mem_ctrl.wrPerTurnAround::18                 1     50.00%    100.00% # Writes before turning the bus around for reads
system.mem_ctrl.wrPerTurnAround::total              2                       # Writes before turning the bus around for reads
system.mem_ctrl.bytesReadDRAM                  193216                       # Total number of bytes read from DRAM
system.mem_ctrl.bytesReadWrQ                      320                       # Total number of bytes read from write queue
system.mem_ctrl.bytesWritten                     2176                       # Total number of bytes written to DRAM
system.mem_ctrl.bytesReadSys                   193536                       # Total read bytes from the system interface side
system.mem_ctrl.bytesWrittenSys                  3840                       # Total written bytes from the system interface side
system.mem_ctrl.avgRdBW                         53.30                       # Average DRAM read bandwidth in MiByte/s
system.mem_ctrl.avgWrBW                          0.60                       # Average achieved write bandwidth in MiByte/s
system.mem_ctrl.avgRdBWSys                      53.39                       # Average system read bandwidth in MiByte/s
system.mem_ctrl.avgWrBWSys                       1.06                       # Average system write bandwidth in MiByte/s
system.mem_ctrl.peakBW                       12800.00                       # Theoretical peak bandwidth in MiByte/s
system.mem_ctrl.busUtil                          0.42                       # Data bus utilization in percentage
system.mem_ctrl.busUtilRead                      0.42                       # Data bus utilization in percentage for reads
system.mem_ctrl.busUtilWrite                     0.00                       # Data bus utilization in percentage for writes
system.mem_ctrl.totGap                     3619619000                       # Total gap between requests
system.mem_ctrl.avgGap                     1173676.72                       # Average gap between requests
system.mem_ctrl.masterReadBytes::.cpu.inst        76608                       # Per-master bytes read from memory
system.mem_ctrl.masterReadBytes::.cpu.data       116608                       # Per-master bytes read from memory
system.mem_ctrl.masterWriteBytes::.writebacks         2176                       # Per-master bytes write to memory
system.mem_ctrl.masterReadRate::.cpu.inst 21134401.585080120713                       # Per-master bytes read from memory rate (Bytes/sec)
system.mem_ctrl.masterReadRate::.cpu.data 32169490.132010005414                       # Per-master bytes read from memory rate (Bytes/sec)
system.mem_ctrl.masterWriteRate::.writebacks 600308.816952985828                       # Per-master bytes write to memory rate (Bytes/sec)
system.mem_ctrl.masterReadAccesses::.cpu.inst         1197                       # Per-master read serviced memory accesses
system.mem_ctrl.masterReadAccesses::.cpu.data         1827                       # Per-master read serviced memory accesses
system.mem_ctrl.masterWriteAccesses::.writebacks           60                       # Per-master write serviced memory accesses
system.mem_ctrl.masterReadTotalLat::.cpu.inst     30662250                       # Per-master read total memory access latency
system.mem_ctrl.masterReadTotalLat::.cpu.data     50748500                       # Per-master read total memory access latency
system.mem_ctrl.masterWriteTotalLat::.writebacks  13569630000                       # Per-master write total memory access latency
system.mem_ctrl.masterReadAvgLat::.cpu.inst     25615.91                       # Per-master read average memory access latency
system.mem_ctrl.masterReadAvgLat::.cpu.data     27776.96                       # Per-master read average memory access latency
system.mem_ctrl.masterWriteAvgLat::.writebacks 226160500.00                       # Per-master write average memory access latency
system.mem_ctrl.pageHitRate                     68.13                       # Row buffer hit rate, read and write combined
system.mem_ctrl.rank1.actEnergy               3912720                       # Energy for activate commands per rank (pJ)
system.mem_ctrl.rank1.preEnergy               2079660                       # Energy for precharge commands per rank (pJ)
system.mem_ctrl.rank1.readEnergy              9760380                       # Energy for read commands per rank (pJ)
system.mem_ctrl.rank1.writeEnergy               93960                       # Energy for write commands per rank (pJ)
system.mem_ctrl.rank1.refreshEnergy      285807600.000000                       # Energy for refresh commands per rank (pJ)
system.mem_ctrl.rank1.actBackEnergy         982892040                       # Energy for active background per rank (pJ)
system.mem_ctrl.rank1.preBackEnergy         564225120                       # Energy for precharge background per rank (pJ)
system.mem_ctrl.rank1.actPowerDownEnergy            0                       # Energy for active power-down per rank (pJ)
system.mem_ctrl.rank1.prePowerDownEnergy            0                       # Energy for precharge power-down per rank (pJ)
system.mem_ctrl.rank1.selfRefreshEnergy             0                       # Energy for self refresh per rank (pJ)
system.mem_ctrl.rank1.totalEnergy          1848771480                       # Total energy per rank (pJ)
system.mem_ctrl.rank1.averagePower         510.033925                       # Core power per rank (mW)
system.mem_ctrl.rank1.totalIdleTime                 0                       # Total Idle time Per DRAM Rank
system.mem_ctrl.rank1.memoryStateTime::IDLE   1457497250                       # Time in different power states
system.mem_ctrl.rank1.memoryStateTime::REF    120900000                       # Time in different power states
system.mem_ctrl.rank1.memoryStateTime::SREF            0                       # Time in different power states
system.mem_ctrl.rank1.memoryStateTime::PRE_PDN            0                       # Time in different power states
system.mem_ctrl.rank1.memoryStateTime::ACT   2046403750                       # Time in different power states
system.mem_ctrl.rank1.memoryStateTime::ACT_PDN            0                       # Time in different power states
system.mem_ctrl.rank0.actEnergy               2913120                       # Energy for activate commands per rank (pJ)
system.mem_ctrl.rank0.preEnergy               1548360                       # Energy for precharge commands per rank (pJ)
system.mem_ctrl.rank0.readEnergy             11795280                       # Energy for read commands per rank (pJ)
system.mem_ctrl.rank0.writeEnergy               83520                       # Energy for write commands per rank (pJ)
system.mem_ctrl.rank0.refreshEnergy      285807600.000000                       # Energy for refresh commands per rank (pJ)
system.mem_ctrl.rank0.actBackEnergy         365467470                       # Energy for active background per rank (pJ)
system.mem_ctrl.rank0.preBackEnergy        1084161600                       # Energy for precharge background per rank (pJ)
system.mem_ctrl.rank0.actPowerDownEnergy            0                       # Energy for active power-down per rank (pJ)
system.mem_ctrl.rank0.prePowerDownEnergy            0                       # Energy for precharge power-down per rank (pJ)
system.mem_ctrl.rank0.selfRefreshEnergy             0                       # Energy for self refresh per rank (pJ)
system.mem_ctrl.rank0.totalEnergy          1751776950                       # Total energy per rank (pJ)
system.mem_ctrl.rank0.averagePower         483.275344                       # Core power per rank (mW)
system.mem_ctrl.rank0.totalIdleTime                 0                       # Total Idle time Per DRAM Rank
system.mem_ctrl.rank0.memoryStateTime::IDLE   2814841000                       # Time in different power states
system.mem_ctrl.rank0.memoryStateTime::REF    120900000                       # Time in different power states
system.mem_ctrl.rank0.memoryStateTime::SREF            0                       # Time in different power states
system.mem_ctrl.rank0.memoryStateTime::PRE_PDN            0                       # Time in different power states
system.mem_ctrl.rank0.memoryStateTime::ACT    689060000                       # Time in different power states
system.mem_ctrl.rank0.memoryStateTime::ACT_PDN            0                       # Time in different power states
system.mem_ctrl.power_state.pwrStateResidencyTicks::UNDEFINED   3624801000                       # Cumulative time (in ticks) in various power states
system.cache_medium.blocked_cycles::no_mshrs            0                       # number of cycles access was blocked
system.cache_medium.blocked_cycles::no_targets            0                       # number of cycles access was blocked
system.cache_medium.blocked::no_mshrs               0                       # number of cycles access was blocked
system.cache_medium.blocked::no_targets             0                       # number of cycles access was blocked
system.cache_medium.avg_blocked_cycles::no_mshrs          nan                       # average number of cycles each access was blocked
system.cache_medium.avg_blocked_cycles::no_targets          nan                       # average number of cycles each access was blocked
system.cache_medium.replacements                    0                       # number of replacements
system.cache_medium.power_state.pwrStateResidencyTicks::UNDEFINED   3624801000                       # Cumulative time (in ticks) in various power states
system.cache_medium.tags.tagsinuse                  0                       # Cycle average of tags in use
system.cache_medium.tags.total_refs                 0                       # Total number of references to valid blocks.
system.cache_medium.tags.sampled_refs               0                       # Sample count of references to valid blocks.
system.cache_medium.tags.avg_refs                 nan                       # Average number of references to valid blocks.
system.cache_medium.tags.warmup_cycle               0                       # Cycle when the warmup percentage was hit.
system.cache_medium.tags.tag_accesses               0                       # Number of tag accesses
system.cache_medium.tags.data_accesses              0                       # Number of data accesses
system.cache_medium.tags.power_state.pwrStateResidencyTicks::UNDEFINED   3624801000                       # Cumulative time (in ticks) in various power states
system.clk_domain.clock                          1000                       # Clock period in ticks
system.clk_domain.voltage_domain.voltage            1                       # Voltage in Volts
system.dcache.demand_hits::.cpu.data           240193                       # number of demand (read+write) hits
system.dcache.demand_hits::total               240193                       # number of demand (read+write) hits
system.dcache.overall_hits::.cpu.data          240209                       # number of overall hits
system.dcache.overall_hits::total              240209                       # number of overall hits
system.dcache.demand_misses::.cpu.data           4123                       # number of demand (read+write) misses
system.dcache.demand_misses::total               4123                       # number of demand (read+write) misses
system.dcache.overall_misses::.cpu.data          4128                       # number of overall misses
system.dcache.overall_misses::total              4128                       # number of overall misses
system.dcache.demand_miss_latency::.cpu.data    180671000                       # number of demand (read+write) miss cycles
system.dcache.demand_miss_latency::total    180671000                       # number of demand (read+write) miss cycles
system.dcache.overall_miss_latency::.cpu.data    181016000                       # number of overall miss cycles
system.dcache.overall_miss_latency::total    181016000                       # number of overall miss cycles
system.dcache.demand_accesses::.cpu.data       244316                       # number of demand (read+write) accesses
system.dcache.demand_accesses::total           244316                       # number of demand (read+write) accesses
system.dcache.overall_accesses::.cpu.data       244337                       # number of overall (read+write) accesses
system.dcache.overall_accesses::total          244337                       # number of overall (read+write) accesses
system.dcache.demand_miss_rate::.cpu.data     0.016876                       # miss rate for demand accesses
system.dcache.demand_miss_rate::total        0.016876                       # miss rate for demand accesses
system.dcache.overall_miss_rate::.cpu.data     0.016895                       # miss rate for overall accesses
system.dcache.overall_miss_rate::total       0.016895                       # miss rate for overall accesses
system.dcache.demand_avg_miss_latency::.cpu.data 43820.276498                       # average overall miss latency
system.dcache.demand_avg_miss_latency::total 43820.276498                       # average overall miss latency
system.dcache.overall_avg_miss_latency::.cpu.data 43850.775194                       # average overall miss latency
system.dcache.overall_avg_miss_latency::total 43850.775194                       # average overall miss latency
system.dcache.blocked_cycles::no_mshrs              0                       # number of cycles access was blocked
system.dcache.blocked_cycles::no_targets            0                       # number of cycles access was blocked
system.dcache.blocked::no_mshrs                     0                       # number of cycles access was blocked
system.dcache.blocked::no_targets                   0                       # number of cycles access was blocked
system.dcache.avg_blocked_cycles::no_mshrs          nan                       # average number of cycles each access was blocked
system.dcache.avg_blocked_cycles::no_targets          nan                       # average number of cycles each access was blocked
system.dcache.writebacks::.writebacks            2415                       # number of writebacks
system.dcache.writebacks::total                  2415                       # number of writebacks
system.dcache.demand_mshr_misses::.cpu.data         4123                       # number of demand (read+write) MSHR misses
system.dcache.demand_mshr_misses::total          4123                       # number of demand (read+write) MSHR misses
system.dcache.overall_mshr_misses::.cpu.data         4128                       # number of overall MSHR misses
system.dcache.overall_mshr_misses::total         4128                       # number of overall MSHR misses
system.dcache.demand_mshr_miss_latency::.cpu.data    172427000                       # number of demand (read+write) MSHR miss cycles
system.dcache.demand_mshr_miss_latency::total    172427000                       # number of demand (read+write) MSHR miss cycles
system.dcache.overall_mshr_miss_latency::.cpu.data    172762000                       # number of overall MSHR miss cycles
system.dcache.overall_mshr_miss_latency::total    172762000                       # number of overall MSHR miss cycles
system.dcache.demand_mshr_miss_rate::.cpu.data     0.016876                       # mshr miss rate for demand accesses
system.dcache.demand_mshr_miss_rate::total     0.016876                       # mshr miss rate for demand accesses
[...]
system.dcache.tags.age_task_id_blocks_1024::2          182                       # Occupied blocks per task id
system.dcache.tags.age_task_id_blocks_1024::3           53                       # Occupied blocks per task id
system.dcache.tags.occ_task_id_percent::1024            1                       # Percentage of cache occupancy per task id
system.dcache.tags.tag_accesses               1542700                       # Number of tag accesses
system.dcache.tags.data_accesses              1542700                       # Number of data accesses
system.dcache.tags.power_state.pwrStateResidencyTicks::UNDEFINED  24273699000                       # Cumulative time (in ticks) in various power states
system.cache_large.blocked_cycles::no_mshrs            0                       # number of cycles access was blocked
system.cache_large.blocked_cycles::no_targets            0                       # number of cycles access was blocked
system.cache_large.blocked::no_mshrs                0                       # number of cycles access was blocked
system.cache_large.blocked::no_targets              0                       # number of cycles access was blocked
system.cache_large.avg_blocked_cycles::no_mshrs          nan                       # average number of cycles each access was blocked
system.cache_large.avg_blocked_cycles::no_targets          nan                       # average number of cycles each access was blocked
system.cache_large.replacements                     0                       # number of replacements
system.cache_large.power_state.pwrStateResidencyTicks::UNDEFINED  24273699000                       # Cumulative time (in ticks) in various power states
system.cache_large.tags.tagsinuse                   0                       # Cycle average of tags in use
system.cache_large.tags.total_refs                  0                       # Total number of references to valid blocks.
system.cache_large.tags.sampled_refs                0                       # Sample count of references to valid blocks.
system.cache_large.tags.avg_refs                  nan                       # Average number of references to valid blocks.
system.cache_large.tags.warmup_cycle                0                       # Cycle when the warmup percentage was hit.
system.cache_large.tags.tag_accesses                0                       # Number of tag accesses
system.cache_large.tags.data_accesses               0                       # Number of data accesses
system.cache_large.tags.power_state.pwrStateResidencyTicks::UNDEFINED  24273699000                       # Cumulative time (in ticks) in various power states
system.l2cache.demand_hits::.cpu.inst             176                       # number of demand (read+write) hits
system.l2cache.demand_hits::.cpu.data            7093                       # number of demand (read+write) hits
system.l2cache.demand_hits::total                7269                       # number of demand (read+write) hits
system.l2cache.overall_hits::.cpu.inst            176                       # number of overall hits
system.l2cache.overall_hits::.cpu.data           7093                       # number of overall hits
system.l2cache.overall_hits::total               7269                       # number of overall hits
system.l2cache.demand_misses::.cpu.inst          1459                       # number of demand (read+write) misses
system.l2cache.demand_misses::.cpu.data          8794                       # number of demand (read+write) misses
system.l2cache.demand_misses::total             10253                       # number of demand (read+write) misses
system.l2cache.overall_misses::.cpu.inst         1459                       # number of overall misses
system.l2cache.overall_misses::.cpu.data         8794                       # number of overall misses
system.l2cache.overall_misses::total            10253                       # number of overall misses
system.l2cache.demand_miss_latency::.cpu.inst     87782000                       # number of demand (read+write) miss cycles
system.l2cache.demand_miss_latency::.cpu.data    485350000                       # number of demand (read+write) miss cycles
system.l2cache.demand_miss_latency::total    573132000                       # number of demand (read+write) miss cycles
system.l2cache.overall_miss_latency::.cpu.inst     87782000                       # number of overall miss cycles
system.l2cache.overall_miss_latency::.cpu.data    485350000                       # number of overall miss cycles
system.l2cache.overall_miss_latency::total    573132000                       # number of overall miss cycles
system.l2cache.demand_accesses::.cpu.inst         1635                       # number of demand (read+write) accesses
system.l2cache.demand_accesses::.cpu.data        15887                       # number of demand (read+write) accesses
system.l2cache.demand_accesses::total           17522                       # number of demand (read+write) accesses
system.l2cache.overall_accesses::.cpu.inst         1635                       # number of overall (read+write) accesses
system.l2cache.overall_accesses::.cpu.data        15887                       # number of overall (read+write) accesses
system.l2cache.overall_accesses::total          17522                       # number of overall (read+write) accesses
system.l2cache.demand_miss_rate::.cpu.inst     0.892355                       # miss rate for demand accesses
system.l2cache.demand_miss_rate::.cpu.data     0.553534                       # miss rate for demand accesses
system.l2cache.demand_miss_rate::total       0.585150                       # miss rate for demand accesses
system.l2cache.overall_miss_rate::.cpu.inst     0.892355                       # miss rate for overall accesses
system.l2cache.overall_miss_rate::.cpu.data     0.553534                       # miss rate for overall accesses
system.l2cache.overall_miss_rate::total      0.585150                       # miss rate for overall accesses
system.l2cache.demand_avg_miss_latency::.cpu.inst 60165.867032                       # average overall miss latency
system.l2cache.demand_avg_miss_latency::.cpu.data 55191.039345                       # average overall miss latency
system.l2cache.demand_avg_miss_latency::total 55898.956403                       # average overall miss latency
system.l2cache.overall_avg_miss_latency::.cpu.inst 60165.867032                       # average overall miss latency
system.l2cache.overall_avg_miss_latency::.cpu.data 55191.039345                       # average overall miss latency
system.l2cache.overall_avg_miss_latency::total 55898.956403                       # average overall miss latency
system.l2cache.blocked_cycles::no_mshrs             0                       # number of cycles access was blocked
system.l2cache.blocked_cycles::no_targets            0                       # number of cycles access was blocked
system.l2cache.blocked::no_mshrs                    0                       # number of cycles access was blocked
system.l2cache.blocked::no_targets                  0                       # number of cycles access was blocked
system.l2cache.avg_blocked_cycles::no_mshrs          nan                       # average number of cycles each access was blocked
system.l2cache.avg_blocked_cycles::no_targets          nan                       # average number of cycles each access was blocked
system.l2cache.writebacks::.writebacks           8130                       # number of writebacks
system.l2cache.writebacks::total                 8130                       # number of writebacks
system.l2cache.demand_mshr_misses::.cpu.inst         1459                       # number of demand (read+write) MSHR misses
system.l2cache.demand_mshr_misses::.cpu.data         8794                       # number of demand (read+write) MSHR misses
system.l2cache.demand_mshr_misses::total        10253                       # number of demand (read+write) MSHR misses
system.l2cache.overall_mshr_misses::.cpu.inst         1459                       # number of overall MSHR misses
system.l2cache.overall_mshr_misses::.cpu.data         8794                       # number of overall MSHR misses
system.l2cache.overall_mshr_misses::total        10253                       # number of overall MSHR misses
system.l2cache.demand_mshr_miss_latency::.cpu.inst     84864000                       # number of demand (read+write) MSHR miss cycles
system.l2cache.demand_mshr_miss_latency::.cpu.data    467762000                       # number of demand (read+write) MSHR miss cycles
system.l2cache.demand_mshr_miss_latency::total    552626000                       # number of demand (read+write) MSHR miss cycles
system.l2cache.overall_mshr_miss_latency::.cpu.inst     84864000                       # number of overall MSHR miss cycles
system.l2cache.overall_mshr_miss_latency::.cpu.data    467762000                       # number of overall MSHR miss cycles
system.l2cache.overall_mshr_miss_latency::total    552626000                       # number of overall MSHR miss cycles
system.l2cache.demand_mshr_miss_rate::.cpu.inst     0.892355                       # mshr miss rate for demand accesses
system.l2cache.demand_mshr_miss_rate::.cpu.data     0.553534                       # mshr miss rate for demand accesses
system.l2cache.demand_mshr_miss_rate::total     0.585150                       # mshr miss rate for demand accesses
system.l2cache.overall_mshr_miss_rate::.cpu.inst     0.892355                       # mshr miss rate for overall accesses
system.l2cache.overall_mshr_miss_rate::.cpu.data     0.553534                       # mshr miss rate for overall accesses
system.l2cache.overall_mshr_miss_rate::total     0.585150                       # mshr miss rate for overall accesses
system.l2cache.demand_avg_mshr_miss_latency::.cpu.inst 58165.867032                       # average overall mshr miss latency
system.l2cache.demand_avg_mshr_miss_latency::.cpu.data 53191.039345                       # average overall mshr miss latency
system.l2cache.demand_avg_mshr_miss_latency::total 53898.956403                       # average overall mshr miss latency
system.l2cache.overall_avg_mshr_miss_latency::.cpu.inst 58165.867032                       # average overall mshr miss latency
system.l2cache.overall_avg_mshr_miss_latency::.cpu.data 53191.039345                       # average overall mshr miss latency
system.l2cache.overall_avg_mshr_miss_latency::total 53898.956403                       # average overall mshr miss latency
system.l2cache.replacements                     13350                       # number of replacements
system.l2cache.ReadReq_hits::.cpu.inst            176                       # number of ReadReq hits
system.l2cache.ReadReq_hits::.cpu.data           7093                       # number of ReadReq hits
system.l2cache.ReadReq_hits::total               7269                       # number of ReadReq hits
system.l2cache.ReadReq_misses::.cpu.inst         1459                       # number of ReadReq misses
system.l2cache.ReadReq_misses::.cpu.data         8794                       # number of ReadReq misses
system.l2cache.ReadReq_misses::total            10253                       # number of ReadReq misses
system.l2cache.ReadReq_miss_latency::.cpu.inst     87782000                       # number of ReadReq miss cycles
system.l2cache.ReadReq_miss_latency::.cpu.data    485350000                       # number of ReadReq miss cycles
system.l2cache.ReadReq_miss_latency::total    573132000                       # number of ReadReq miss cycles
system.l2cache.ReadReq_accesses::.cpu.inst         1635                       # number of ReadReq accesses(hits+misses)
system.l2cache.ReadReq_accesses::.cpu.data        15887                       # number of ReadReq accesses(hits+misses)
system.l2cache.ReadReq_accesses::total          17522                       # number of ReadReq accesses(hits+misses)
system.l2cache.ReadReq_miss_rate::.cpu.inst     0.892355                       # miss rate for ReadReq accesses
system.l2cache.ReadReq_miss_rate::.cpu.data     0.553534                       # miss rate for ReadReq accesses
system.l2cache.ReadReq_miss_rate::total      0.585150                       # miss rate for ReadReq accesses
system.l2cache.ReadReq_avg_miss_latency::.cpu.inst 60165.867032                       # average ReadReq miss latency
system.l2cache.ReadReq_avg_miss_latency::.cpu.data 55191.039345                       # average ReadReq miss latency
system.l2cache.ReadReq_avg_miss_latency::total 55898.956403                       # average ReadReq miss latency
system.l2cache.ReadReq_mshr_misses::.cpu.inst         1459                       # number of ReadReq MSHR misses
system.l2cache.ReadReq_mshr_misses::.cpu.data         8794                       # number of ReadReq MSHR misses
system.l2cache.ReadReq_mshr_misses::total        10253                       # number of ReadReq MSHR misses
system.l2cache.ReadReq_mshr_miss_latency::.cpu.inst     84864000                       # number of ReadReq MSHR miss cycles
system.l2cache.ReadReq_mshr_miss_latency::.cpu.data    467762000                       # number of ReadReq MSHR miss cycles
system.l2cache.ReadReq_mshr_miss_latency::total    552626000                       # number of ReadReq MSHR miss cycles
system.l2cache.ReadReq_mshr_miss_rate::.cpu.inst     0.892355                       # mshr miss rate for ReadReq accesses
system.l2cache.ReadReq_mshr_miss_rate::.cpu.data     0.553534                       # mshr miss rate for ReadReq accesses
system.l2cache.ReadReq_mshr_miss_rate::total     0.585150                       # mshr miss rate for ReadReq accesses
system.l2cache.ReadReq_avg_mshr_miss_latency::.cpu.inst 58165.867032                       # average ReadReq mshr miss latency
system.l2cache.ReadReq_avg_mshr_miss_latency::.cpu.data 53191.039345                       # average ReadReq mshr miss latency
system.l2cache.ReadReq_avg_mshr_miss_latency::total 53898.956403                       # average ReadReq mshr miss latency
system.l2cache.WritebackDirty_hits::.writebacks        10885                       # number of WritebackDirty hits
system.l2cache.WritebackDirty_hits::total        10885                       # number of WritebackDirty hits
system.l2cache.WritebackDirty_accesses::.writebacks        10885                       # number of WritebackDirty accesses(hits+misses)
system.l2cache.WritebackDirty_accesses::total        10885                       # number of WritebackDirty accesses(hits+misses)
system.l2cache.power_state.pwrStateResidencyTicks::UNDEFINED  24273699000                       # Cumulative time (in ticks) in various power states
system.l2cache.tags.tagsinuse              510.246293                       # Cycle average of tags in use
system.l2cache.tags.total_refs                  28407                       # Total number of references to valid blocks.
system.l2cache.tags.sampled_refs                13862                       # Sample count of references to valid blocks.
system.l2cache.tags.avg_refs                 2.049271                       # Average number of references to valid blocks.
system.l2cache.tags.warmup_cycle                78000                       # Cycle when the warmup percentage was hit.
system.l2cache.tags.occ_blocks::.writebacks    35.486274                       # Average occupied blocks per requestor
system.l2cache.tags.occ_blocks::.cpu.inst    13.866234                       # Average occupied blocks per requestor
system.l2cache.tags.occ_blocks::.cpu.data   460.893784                       # Average occupied blocks per requestor
system.l2cache.tags.occ_percent::.writebacks     0.069309                       # Average percentage of cache occupancy
system.l2cache.tags.occ_percent::.cpu.inst     0.027082                       # Average percentage of cache occupancy
system.l2cache.tags.occ_percent::.cpu.data     0.900183                       # Average percentage of cache occupancy
system.l2cache.tags.occ_percent::total       0.996575                       # Average percentage of cache occupancy
system.l2cache.tags.occ_task_id_blocks::1024          512                       # Occupied blocks per task id
system.l2cache.tags.age_task_id_blocks_1024::0            2                       # Occupied blocks per task id
system.l2cache.tags.age_task_id_blocks_1024::1           20                       # Occupied blocks per task id
system.l2cache.tags.age_task_id_blocks_1024::2          189                       # Occupied blocks per task id
system.l2cache.tags.age_task_id_blocks_1024::3          301                       # Occupied blocks per task id
system.l2cache.tags.occ_task_id_percent::1024            1                       # Percentage of cache occupancy per task id
system.l2cache.tags.tag_accesses                42269                       # Number of tag accesses
system.l2cache.tags.data_accesses               42269                       # Number of data accesses
system.l2cache.tags.power_state.pwrStateResidencyTicks::UNDEFINED  24273699000                       # Cumulative time (in ticks) in various power states
system.l2bar.trans_dist::ReadReq                17522                       # Transaction distribution
system.l2bar.trans_dist::ReadResp               17522                       # Transaction distribution
system.l2bar.trans_dist::WritebackDirty         10885                       # Transaction distribution
system.l2bar.pkt_count_system.dcache.mem_side::system.l2cache.cpu_side        42659                       # Packet count per connected master and slave (bytes)
system.l2bar.pkt_count_system.icache.mem_side::system.l2cache.cpu_side         3270                       # Packet count per connected master and slave (bytes)
system.l2bar.pkt_count::total                   45929                       # Packet count per connected master and slave (bytes)
system.l2bar.pkt_size_system.dcache.mem_side::system.l2cache.cpu_side      1713408                       # Cumulative packet size per connected master and slave (bytes)
system.l2bar.pkt_size_system.icache.mem_side::system.l2cache.cpu_side       104640                       # Cumulative packet size per connected master and slave (bytes)
system.l2bar.pkt_size::total                  1818048                       # Cumulative packet size per connected master and slave (bytes)
system.l2bar.respLayer1.occupancy             8175000                       # Layer occupancy (ticks)
system.l2bar.respLayer1.utilization               0.0                       # Layer utilization (%)
system.l2bar.reqLayer0.occupancy             71947000                       # Layer occupancy (ticks)
system.l2bar.reqLayer0.utilization                0.3                       # Layer utilization (%)
system.l2bar.respLayer0.occupancy            79435000                       # Layer occupancy (ticks)
system.l2bar.respLayer0.utilization               0.3                       # Layer utilization (%)
system.l2bar.power_state.pwrStateResidencyTicks::UNDEFINED  24273699000                       # Cumulative time (in ticks) in various power states
system.cpu.dtb.walker.power_state.pwrStateResidencyTicks::UNDEFINED  24273699000                       # Cumulative time (in ticks) in various power states
system.cpu.interrupts.clk_domain.clock          16000                       # Clock period in ticks
system.cpu.itb.walker.power_state.pwrStateResidencyTicks::UNDEFINED  24273699000                       # Cumulative time (in ticks) in various power states
system.cpu.power_state.numTransitions               1                       # Number of power state transitions
system.cpu.power_state.pwrStateResidencyTicks::ON  24273699000                       # Cumulative time (in ticks) in various power states

---------- End Simulation Statistics   ----------
