
---------- Begin Simulation Statistics ----------
final_tick                                18578625000                       # Number of ticks from beginning of simulation (restored from checkpoints and never reset)
host_inst_rate                                  36599                       # Simulator instruction rate (inst/s)
host_mem_usage                               34223704                       # Number of bytes of host memory used
host_op_rate                                    65972                       # Simulator op (including micro ops) rate (op/s)
host_seconds                                    27.32                       # Real time elapsed on the host
host_tick_rate                              679957728                       # Simulator tick rate (ticks/s)
sim_freq                                 1000000000000                       # Frequency of simulated ticks
sim_insts                                     1000005                       # Number of instructions simulated
sim_ops                                       1802575                       # Number of ops (including micro ops) simulated
sim_seconds                                  0.018579                       # Number of seconds simulated
sim_ticks                                 18578625000                       # Number of ticks simulated
system.cpu.Branches                            200578                       # Number of branches fetched
system.cpu.committedInsts                     1000005                       # Number of instructions committed
system.cpu.committedOps                       1802575                       # Number of ops (including micro ops) committed
system.cpu.dtb.rdAccesses                      200140                       # TLB accesses on read requests
system.cpu.dtb.rdMisses                            15                       # TLB misses on read requests
system.cpu.dtb.wrAccesses                      248991                       # TLB accesses on write requests
system.cpu.dtb.wrMisses                         98855                       # TLB misses on write requests
system.cpu.idle_fraction                            0                       # Percentage of idle cycles
system.cpu.itb.rdAccesses                           0                       # TLB accesses on read requests
system.cpu.itb.rdMisses                             0                       # TLB misses on read requests
system.cpu.itb.wrAccesses                     1250622                       # TLB accesses on write requests
system.cpu.itb.wrMisses                            45                       # TLB misses on write requests
system.cpu.not_idle_fraction                        1                       # Percentage of non-idle cycles
system.cpu.numCycles                         18578614                       # number of cpu cycles simulated
system.cpu.numWorkItemsCompleted                    0                       # number of work items this cpu completed
system.cpu.numWorkItemsStarted                      0                       # number of work items this cpu started
system.cpu.num_busy_cycles                   18578614                       # Number of busy cycles
system.cpu.num_cc_register_reads              1002472                       # number of times the CC registers were read
system.cpu.num_cc_register_writes              798666                       # number of times the CC registers were written
system.cpu.num_conditional_control_insts       199906                       # number of instructions that are conditional controls
system.cpu.num_fp_alu_accesses                    550                       # Number of float alu accesses
system.cpu.num_fp_insts                           550                       # number of float instructions
system.cpu.num_fp_register_reads                  798                       # number of times the floating registers were read
system.cpu.num_fp_register_writes                 306                       # number of times the floating registers were written
system.cpu.num_func_calls                         494                       # number of times a function call or return occured
system.cpu.num_idle_cycles                          0                       # Number of idle cycles
system.cpu.num_int_alu_accesses               1851490                       # Number of integer alu accesses
system.cpu.num_int_insts                      1851490                       # number of integer instructions
system.cpu.num_int_register_reads             3404563                       # number of times the integer registers were read
system.cpu.num_int_register_writes            1402133                       # number of times the integer registers were written
system.cpu.num_load_insts                      200137                       # Number of load instructions
system.cpu.num_mem_refs                        449126                       # number of memory refs
system.cpu.num_store_insts                     248989                       # Number of store instructions
system.cpu.num_vec_alu_accesses                     0                       # Number of vector alu accesses
system.cpu.num_vec_insts                            0                       # number of vector instructions
system.cpu.num_vec_register_reads                   0                       # number of times the vector registers were read
system.cpu.num_vec_register_writes                  0                       # number of times the vector registers were written
system.cpu.op_class::No_OpClass                   191      0.01%      0.01% # Class of executed instruction
system.cpu.op_class::IntAlu                   1402328     75.72%     75.73% # Class of executed instruction
system.cpu.op_class::IntMult                       28      0.00%     75.73% # Class of executed instruction
system.cpu.op_class::IntDiv                        35      0.00%     75.73% # Class of executed instruction
system.cpu.op_class::FloatAdd                      10      0.00%     75.73% # Class of executed instruction
system.cpu.op_class::FloatCmp                       0      0.00%     75.73% # Class of executed instruction
system.cpu.op_class::FloatCvt                       0      0.00%     75.73% # Class of executed instruction
system.cpu.op_class::FloatMult                      0      0.00%     75.73% # Class of executed instruction
system.cpu.op_class::FloatMultAcc                   0      0.00%     75.73% # Class of executed instruction
system.cpu.op_class::FloatDiv                       0      0.00%     75.73% # Class of executed instruction
system.cpu.op_class::FloatMisc                      0      0.00%     75.73% # Class of executed instruction
system.cpu.op_class::FloatSqrt                      0      0.00%     75.73% # Class of executed instruction
system.cpu.op_class::SimdAdd                        0      0.00%     75.73% # Class of executed instruction
system.cpu.op_class::SimdAddAcc                     0      0.00%     75.73% # Class of executed instruction
system.cpu.op_class::SimdAlu                       84      0.00%     75.74% # Class of executed instruction
system.cpu.op_class::SimdCmp                        0      0.00%     75.74% # Class of executed instruction
system.cpu.op_class::SimdCvt                       68      0.00%     75.74% # Class of executed instruction
system.cpu.op_class::SimdMisc                     130      0.01%     75.75% # Class of executed instruction
system.cpu.op_class::SimdMult                       0      0.00%     75.75% # Class of executed instruction
system.cpu.op_class::SimdMultAcc                    0      0.00%     75.75% # Class of executed instruction
system.cpu.op_class::SimdShift                      0      0.00%     75.75% # Class of executed instruction
system.cpu.op_class::SimdShiftAcc                   0      0.00%     75.75% # Class of executed instruction
system.cpu.op_class::SimdDiv                        0      0.00%     75.75% # Class of executed instruction
system.cpu.op_class::SimdSqrt                       0      0.00%     75.75% # Class of executed instruction
system.cpu.op_class::SimdFloatAdd                   0      0.00%     75.75% # Class of executed instruction
system.cpu.op_class::SimdFloatAlu                   0      0.00%     75.75% # Class of executed instruction
system.cpu.op_class::SimdFloatCmp                   0      0.00%     75.75% # Class of executed instruction
system.cpu.op_class::SimdFloatCvt                   0      0.00%     75.75% # Class of executed instruction
system.cpu.op_class::SimdFloatDiv                   0      0.00%     75.75% # Class of executed instruction
system.cpu.op_class::SimdFloatMisc                  0      0.00%     75.75% # Class of executed instruction
system.cpu.op_class::SimdFloatMult                  0      0.00%     75.75% # Class of executed instruction
system.cpu.op_class::SimdFloatMultAcc               0      0.00%     75.75% # Class of executed instruction
system.cpu.op_class::SimdFloatSqrt                  0      0.00%     75.75% # Class of executed instruction
system.cpu.op_class::SimdReduceAdd                  0      0.00%     75.75% # Class of executed instruction
system.cpu.op_class::SimdReduceAlu                  0      0.00%     75.75% # Class of executed instruction
system.cpu.op_class::SimdReduceCmp                  0      0.00%     75.75% # Class of executed instruction
system.cpu.op_class::SimdFloatReduceAdd             0      0.00%     75.75% # Class of executed instruction
system.cpu.op_class::SimdFloatReduceCmp             0      0.00%     75.75% # Class of executed instruction
system.cpu.op_class::SimdAes                        0      0.00%     75.75% # Class of executed instruction
system.cpu.op_class::SimdAesMix                     0      0.00%     75.75% # Class of executed instruction
system.cpu.op_class::SimdSha1Hash                   0      0.00%     75.75% # Class of executed instruction
system.cpu.op_class::SimdSha1Hash2                  0      0.00%     75.75% # Class of executed instruction
system.cpu.op_class::SimdSha256Hash                 0      0.00%     75.75% # Class of executed instruction
system.cpu.op_class::SimdSha256Hash2                0      0.00%     75.75% # Class of executed instruction
system.cpu.op_class::SimdShaSigma2                  0      0.00%     75.75% # Class of executed instruction
system.cpu.op_class::SimdShaSigma3                  0      0.00%     75.75% # Class of executed instruction
system.cpu.op_class::SimdPredAlu                    0      0.00%     75.75% # Class of executed instruction
system.cpu.op_class::MemRead                   200089     10.80%     86.55% # Class of executed instruction
system.cpu.op_class::MemWrite                  248805     13.43%     99.99% # Class of executed instruction
system.cpu.op_class::FloatMemRead                  48      0.00%     99.99% # Class of executed instruction
system.cpu.op_class::FloatMemWrite                184      0.01%    100.00% # Class of executed instruction
system.cpu.op_class::IprAccess                      0      0.00%    100.00% # Class of executed instruction
system.cpu.op_class::InstPrefetch                   0      0.00%    100.00% # Class of executed instruction
system.cpu.op_class::total                    1852000                       # Class of executed instruction
system.cpu.workload.numSyscalls                    58                       # Number of system calls
system.dynamic_cache.flushTicks                     0                       # Ticks taken to flush
system.dynamic_cache.numFlushes                     0                       # Number of Flushes Taken
system.cache_small.demand_hits::.cpu.inst           41                       # number of demand (read+write) hits
system.cache_small.demand_hits::.cpu.data           10                       # number of demand (read+write) hits
system.cache_small.demand_hits::total              51                       # number of demand (read+write) hits
system.cache_small.overall_hits::.cpu.inst           41                       # number of overall hits
system.cache_small.overall_hits::.cpu.data           10                       # number of overall hits
system.cache_small.overall_hits::total             51                       # number of overall hits
system.cache_small.demand_misses::.cpu.inst          415                       # number of demand (read+write) misses
system.cache_small.demand_misses::.cpu.data       197893                       # number of demand (read+write) misses
system.cache_small.demand_misses::total        198308                       # number of demand (read+write) misses
system.cache_small.overall_misses::.cpu.inst          415                       # number of overall misses
system.cache_small.overall_misses::.cpu.data       197893                       # number of overall misses
system.cache_small.overall_misses::total       198308                       # number of overall misses
system.cache_small.demand_miss_latency::.cpu.inst     24579000                       # number of demand (read+write) miss cycles
system.cache_small.demand_miss_latency::.cpu.data  12276374000                       # number of demand (read+write) miss cycles
system.cache_small.demand_miss_latency::total  12300953000                       # number of demand (read+write) miss cycles
system.cache_small.overall_miss_latency::.cpu.inst     24579000                       # number of overall miss cycles
system.cache_small.overall_miss_latency::.cpu.data  12276374000                       # number of overall miss cycles
system.cache_small.overall_miss_latency::total  12300953000                       # number of overall miss cycles
system.cache_small.demand_accesses::.cpu.inst          456                       # number of demand (read+write) accesses
system.cache_small.demand_accesses::.cpu.data       197903                       # number of demand (read+write) accesses
system.cache_small.demand_accesses::total       198359                       # number of demand (read+write) accesses
system.cache_small.overall_accesses::.cpu.inst          456                       # number of overall (read+write) accesses
system.cache_small.overall_accesses::.cpu.data       197903                       # number of overall (read+write) accesses
system.cache_small.overall_accesses::total       198359                       # number of overall (read+write) accesses
system.cache_small.demand_miss_rate::.cpu.inst     0.910088                       # miss rate for demand accesses
system.cache_small.demand_miss_rate::.cpu.data     0.999949                       # miss rate for demand accesses
system.cache_small.demand_miss_rate::total     0.999743                       # miss rate for demand accesses
system.cache_small.overall_miss_rate::.cpu.inst     0.910088                       # miss rate for overall accesses
system.cache_small.overall_miss_rate::.cpu.data     0.999949                       # miss rate for overall accesses
system.cache_small.overall_miss_rate::total     0.999743                       # miss rate for overall accesses
system.cache_small.demand_avg_miss_latency::.cpu.inst 59226.506024                       # average overall miss latency
system.cache_small.demand_avg_miss_latency::.cpu.data 62035.413077                       # average overall miss latency
system.cache_small.demand_avg_miss_latency::total 62029.534865                       # average overall miss latency
system.cache_small.overall_avg_miss_latency::.cpu.inst 59226.506024                       # average overall miss latency
system.cache_small.overall_avg_miss_latency::.cpu.data 62035.413077                       # average overall miss latency
system.cache_small.overall_avg_miss_latency::total 62029.534865                       # average overall miss latency
system.cache_small.blocked_cycles::no_mshrs            0                       # number of cycles access was blocked
system.cache_small.blocked_cycles::no_targets            0                       # number of cycles access was blocked
system.cache_small.blocked::no_mshrs                0                       # number of cycles access was blocked
system.cache_small.blocked::no_targets              0                       # number of cycles access was blocked
system.cache_small.avg_blocked_cycles::no_mshrs          nan                       # average number of cycles each access was blocked
system.cache_small.avg_blocked_cycles::no_targets          nan                       # average number of cycles each access was blocked
system.cache_small.writebacks::.writebacks       195650                       # number of writebacks
system.cache_small.writebacks::total           195650                       # number of writebacks
system.cache_small.demand_mshr_misses::.cpu.inst          415                       # number of demand (read+write) MSHR misses
system.cache_small.demand_mshr_misses::.cpu.data       197893                       # number of demand (read+write) MSHR misses
system.cache_small.demand_mshr_misses::total       198308                       # number of demand (read+write) MSHR misses
system.cache_small.overall_mshr_misses::.cpu.inst          415                       # number of overall MSHR misses
system.cache_small.overall_mshr_misses::.cpu.data       197893                       # number of overall MSHR misses
system.cache_small.overall_mshr_misses::total       198308                       # number of overall MSHR misses
system.cache_small.demand_mshr_miss_latency::.cpu.inst     23749000                       # number of demand (read+write) MSHR miss cycles
system.cache_small.demand_mshr_miss_latency::.cpu.data  11880588000                       # number of demand (read+write) MSHR miss cycles
system.cache_small.demand_mshr_miss_latency::total  11904337000                       # number of demand (read+write) MSHR miss cycles
system.cache_small.overall_mshr_miss_latency::.cpu.inst     23749000                       # number of overall MSHR miss cycles
system.cache_small.overall_mshr_miss_latency::.cpu.data  11880588000                       # number of overall MSHR miss cycles
system.cache_small.overall_mshr_miss_latency::total  11904337000                       # number of overall MSHR miss cycles
system.cache_small.demand_mshr_miss_rate::.cpu.inst     0.910088                       # mshr miss rate for demand accesses
system.cache_small.demand_mshr_miss_rate::.cpu.data     0.999949                       # mshr miss rate for demand accesses
system.cache_small.demand_mshr_miss_rate::total     0.999743                       # mshr miss rate for demand accesses
system.cache_small.overall_mshr_miss_rate::.cpu.inst     0.910088                       # mshr miss rate for overall accesses
system.cache_small.overall_mshr_miss_rate::.cpu.data     0.999949                       # mshr miss rate for overall accesses
system.cache_small.overall_mshr_miss_rate::total     0.999743                       # mshr miss rate for overall accesses
system.cache_small.demand_avg_mshr_miss_latency::.cpu.inst 57226.506024                       # average overall mshr miss latency
system.cache_small.demand_avg_mshr_miss_latency::.cpu.data 60035.413077                       # average overall mshr miss latency
system.cache_small.demand_avg_mshr_miss_latency::total 60029.534865                       # average overall mshr miss latency
system.cache_small.overall_avg_mshr_miss_latency::.cpu.inst 57226.506024                       # average overall mshr miss latency
system.cache_small.overall_avg_mshr_miss_latency::.cpu.data 60035.413077                       # average overall mshr miss latency
system.cache_small.overall_avg_mshr_miss_latency::total 60029.534865                       # average overall mshr miss latency
system.cache_small.replacements                195679                       # number of replacements
system.cache_small.ReadReq_hits::.cpu.inst           41                       # number of ReadReq hits
system.cache_small.ReadReq_hits::.cpu.data           10                       # number of ReadReq hits
system.cache_small.ReadReq_hits::total             51                       # number of ReadReq hits
system.cache_small.ReadReq_misses::.cpu.inst          415                       # number of ReadReq misses
system.cache_small.ReadReq_misses::.cpu.data       197893                       # number of ReadReq misses
system.cache_small.ReadReq_misses::total       198308                       # number of ReadReq misses
system.cache_small.ReadReq_miss_latency::.cpu.inst     24579000                       # number of ReadReq miss cycles
system.cache_small.ReadReq_miss_latency::.cpu.data  12276374000                       # number of ReadReq miss cycles
system.cache_small.ReadReq_miss_latency::total  12300953000                       # number of ReadReq miss cycles
system.cache_small.ReadReq_accesses::.cpu.inst          456                       # number of ReadReq accesses(hits+misses)
system.cache_small.ReadReq_accesses::.cpu.data       197903                       # number of ReadReq accesses(hits+misses)
system.cache_small.ReadReq_accesses::total       198359                       # number of ReadReq accesses(hits+misses)
system.cache_small.ReadReq_miss_rate::.cpu.inst     0.910088                       # miss rate for ReadReq accesses
system.cache_small.ReadReq_miss_rate::.cpu.data     0.999949                       # miss rate for ReadReq accesses
system.cache_small.ReadReq_miss_rate::total     0.999743                       # miss rate for ReadReq accesses
system.cache_small.ReadReq_avg_miss_latency::.cpu.inst 59226.506024                       # average ReadReq miss latency
system.cache_small.ReadReq_avg_miss_latency::.cpu.data 62035.413077                       # average ReadReq miss latency
system.cache_small.ReadReq_avg_miss_latency::total 62029.534865                       # average ReadReq miss latency
system.cache_small.ReadReq_mshr_misses::.cpu.inst          415                       # number of ReadReq MSHR misses
system.cache_small.ReadReq_mshr_misses::.cpu.data       197893                       # number of ReadReq MSHR misses
system.cache_small.ReadReq_mshr_misses::total       198308                       # number of ReadReq MSHR misses
system.cache_small.ReadReq_mshr_miss_latency::.cpu.inst     23749000                       # number of ReadReq MSHR miss cycles
system.cache_small.ReadReq_mshr_miss_latency::.cpu.data  11880588000                       # number of ReadReq MSHR miss cycles
system.cache_small.ReadReq_mshr_miss_latency::total  11904337000                       # number of ReadReq MSHR miss cycles
system.cache_small.ReadReq_mshr_miss_rate::.cpu.inst     0.910088                       # mshr miss rate for ReadReq accesses
system.cache_small.ReadReq_mshr_miss_rate::.cpu.data     0.999949                       # mshr miss rate for ReadReq accesses
system.cache_small.ReadReq_mshr_miss_rate::total     0.999743                       # mshr miss rate for ReadReq accesses
system.cache_small.ReadReq_avg_mshr_miss_latency::.cpu.inst 57226.506024                       # average ReadReq mshr miss latency
system.cache_small.ReadReq_avg_mshr_miss_latency::.cpu.data 60035.413077                       # average ReadReq mshr miss latency
system.cache_small.ReadReq_avg_mshr_miss_latency::total 60029.534865                       # average ReadReq mshr miss latency
system.cache_small.WritebackDirty_hits::.writebacks       197692                       # number of WritebackDirty hits
system.cache_small.WritebackDirty_hits::total       197692                       # number of WritebackDirty hits
system.cache_small.WritebackDirty_accesses::.writebacks       197692                       # number of WritebackDirty accesses(hits+misses)
system.cache_small.WritebackDirty_accesses::total       197692                       # number of WritebackDirty accesses(hits+misses)
system.cache_small.power_state.pwrStateResidencyTicks::UNDEFINED  18578625000                       # Cumulative time (in ticks) in various power states
system.cache_small.tags.tagsinuse         2608.530598                       # Cycle average of tags in use
system.cache_small.tags.total_refs             391332                       # Total number of references to valid blocks.
system.cache_small.tags.sampled_refs           195679                       # Sample count of references to valid blocks.
system.cache_small.tags.avg_refs             1.999867                       # Average number of references to valid blocks.
system.cache_small.tags.warmup_cycle            76000                       # Cycle when the warmup percentage was hit.
system.cache_small.tags.occ_blocks::.cpu.inst   389.347350                       # Average occupied blocks per requestor
system.cache_small.tags.occ_blocks::.cpu.data  2219.183248                       # Average occupied blocks per requestor
system.cache_small.tags.occ_percent::.cpu.inst     0.011882                       # Average percentage of cache occupancy
system.cache_small.tags.occ_percent::.cpu.data     0.067724                       # Average percentage of cache occupancy
system.cache_small.tags.occ_percent::total     0.079606                       # Average percentage of cache occupancy
system.cache_small.tags.occ_task_id_blocks::1024         2629                       # Occupied blocks per task id
system.cache_small.tags.age_task_id_blocks_1024::0          105                       # Occupied blocks per task id
system.cache_small.tags.age_task_id_blocks_1024::1          963                       # Occupied blocks per task id
system.cache_small.tags.age_task_id_blocks_1024::2          980                       # Occupied blocks per task id
system.cache_small.tags.age_task_id_blocks_1024::4          581                       # Occupied blocks per task id
system.cache_small.tags.occ_task_id_percent::1024     0.080231                       # Percentage of cache occupancy per task id
system.cache_small.tags.tag_accesses           594359                       # Number of tag accesses
system.cache_small.tags.data_accesses          594359                       # Number of data accesses
system.cache_small.tags.power_state.pwrStateResidencyTicks::UNDEFINED  18578625000                       # Cumulative time (in ticks) in various power states
system.icache.demand_hits::.cpu.inst          1250162                       # number of demand (read+write) hits
system.icache.demand_hits::total              1250162                       # number of demand (read+write) hits
system.icache.overall_hits::.cpu.inst         1250162                       # number of overall hits
system.icache.overall_hits::total             1250162                       # number of overall hits
system.icache.demand_misses::.cpu.inst            460                       # number of demand (read+write) misses
system.icache.demand_misses::total                460                       # number of demand (read+write) misses
system.icache.overall_misses::.cpu.inst           460                       # number of overall misses
system.icache.overall_misses::total               460                       # number of overall misses
system.icache.demand_miss_latency::.cpu.inst     32491000                       # number of demand (read+write) miss cycles
system.icache.demand_miss_latency::total     32491000                       # number of demand (read+write) miss cycles
system.icache.overall_miss_latency::.cpu.inst     32491000                       # number of overall miss cycles
system.icache.overall_miss_latency::total     32491000                       # number of overall miss cycles
system.icache.demand_accesses::.cpu.inst      1250622                       # number of demand (read+write) accesses
system.icache.demand_accesses::total          1250622                       # number of demand (read+write) accesses
system.icache.overall_accesses::.cpu.inst      1250622                       # number of overall (read+write) accesses
system.icache.overall_accesses::total         1250622                       # number of overall (read+write) accesses
system.icache.demand_miss_rate::.cpu.inst     0.000368                       # miss rate for demand accesses
system.icache.demand_miss_rate::total        0.000368                       # miss rate for demand accesses
system.icache.overall_miss_rate::.cpu.inst     0.000368                       # miss rate for overall accesses
system.icache.overall_miss_rate::total       0.000368                       # miss rate for overall accesses
system.icache.demand_avg_miss_latency::.cpu.inst 70632.608696                       # average overall miss latency
system.icache.demand_avg_miss_latency::total 70632.608696                       # average overall miss latency
system.icache.overall_avg_miss_latency::.cpu.inst 70632.608696                       # average overall miss latency
system.icache.overall_avg_miss_latency::total 70632.608696                       # average overall miss latency
system.icache.blocked_cycles::no_mshrs              0                       # number of cycles access was blocked
system.icache.blocked_cycles::no_targets            0                       # number of cycles access was blocked
system.icache.blocked::no_mshrs                     0                       # number of cycles access was blocked
system.icache.blocked::no_targets                   0                       # number of cycles access was blocked
system.icache.avg_blocked_cycles::no_mshrs          nan                       # average number of cycles each access was blocked
system.icache.avg_blocked_cycles::no_targets          nan                       # average number of cycles each access was blocked
system.icache.demand_mshr_misses::.cpu.inst          460                       # number of demand (read+write) MSHR misses
system.icache.demand_mshr_misses::total           460                       # number of demand (read+write) MSHR misses
system.icache.overall_mshr_misses::.cpu.inst          460                       # number of overall MSHR misses
system.icache.overall_mshr_misses::total          460                       # number of overall MSHR misses
system.icache.demand_mshr_miss_latency::.cpu.inst     31571000                       # number of demand (read+write) MSHR miss cycles
system.icache.demand_mshr_miss_latency::total     31571000                       # number of demand (read+write) MSHR miss cycles
system.icache.overall_mshr_miss_latency::.cpu.inst     31571000                       # number of overall MSHR miss cycles
system.icache.overall_mshr_miss_latency::total     31571000                       # number of overall MSHR miss cycles
system.icache.demand_mshr_miss_rate::.cpu.inst     0.000368                       # mshr miss rate for demand accesses
system.icache.demand_mshr_miss_rate::total     0.000368                       # mshr miss rate for demand accesses
system.icache.overall_mshr_miss_rate::.cpu.inst     0.000368                       # mshr miss rate for overall accesses
system.icache.overall_mshr_miss_rate::total     0.000368                       # mshr miss rate for overall accesses
system.icache.demand_avg_mshr_miss_latency::.cpu.inst 68632.608696                       # average overall mshr miss latency
system.icache.demand_avg_mshr_miss_latency::total 68632.608696                       # average overall mshr miss latency
system.icache.overall_avg_mshr_miss_latency::.cpu.inst 68632.608696                       # average overall mshr miss latency
system.icache.overall_avg_mshr_miss_latency::total 68632.608696                       # average overall mshr miss latency
system.icache.replacements                        243                       # number of replacements
system.icache.ReadReq_hits::.cpu.inst         1250162                       # number of ReadReq hits
system.icache.ReadReq_hits::total             1250162                       # number of ReadReq hits
system.icache.ReadReq_misses::.cpu.inst           460                       # number of ReadReq misses
system.icache.ReadReq_misses::total               460                       # number of ReadReq misses
system.icache.ReadReq_miss_latency::.cpu.inst     32491000                       # number of ReadReq miss cycles
system.icache.ReadReq_miss_latency::total     32491000                       # number of ReadReq miss cycles
system.icache.ReadReq_accesses::.cpu.inst      1250622                       # number of ReadReq accesses(hits+misses)
system.icache.ReadReq_accesses::total         1250622                       # number of ReadReq accesses(hits+misses)
system.icache.ReadReq_miss_rate::.cpu.inst     0.000368                       # miss rate for ReadReq accesses
system.icache.ReadReq_miss_rate::total       0.000368                       # miss rate for ReadReq accesses
system.icache.ReadReq_avg_miss_latency::.cpu.inst 70632.608696                       # average ReadReq miss latency
system.icache.ReadReq_avg_miss_latency::total 70632.608696                       # average ReadReq miss latency
system.icache.ReadReq_mshr_misses::.cpu.inst          460                       # number of ReadReq MSHR misses
system.icache.ReadReq_mshr_misses::total          460                       # number of ReadReq MSHR misses
system.icache.ReadReq_mshr_miss_latency::.cpu.inst     31571000                       # number of ReadReq MSHR miss cycles
system.icache.ReadReq_mshr_miss_latency::total     31571000                       # number of ReadReq MSHR miss cycles
system.icache.ReadReq_mshr_miss_rate::.cpu.inst     0.000368                       # mshr miss rate for ReadReq accesses
system.icache.ReadReq_mshr_miss_rate::total     0.000368                       # mshr miss rate for ReadReq accesses
system.icache.ReadReq_avg_mshr_miss_latency::.cpu.inst 68632.608696                       # average ReadReq mshr miss latency
system.icache.ReadReq_avg_mshr_miss_latency::total 68632.608696                       # average ReadReq mshr miss latency
system.icache.power_state.pwrStateResidencyTicks::UNDEFINED  18578625000                       # Cumulative time (in ticks) in various power states
system.icache.tags.tagsinuse               216.642663                       # Cycle average of tags in use
system.icache.tags.total_refs                    6638                       # Total number of references to valid blocks.
system.icache.tags.sampled_refs                   243                       # Sample count of references to valid blocks.
system.icache.tags.avg_refs                 27.316872                       # Average number of references to valid blocks.
system.icache.tags.warmup_cycle                 82000                       # Cycle when the warmup percentage was hit.
system.icache.tags.occ_blocks::.cpu.inst   216.642663                       # Average occupied blocks per requestor
system.icache.tags.occ_percent::.cpu.inst     0.846260                       # Average percentage of cache occupancy
system.icache.tags.occ_percent::total        0.846260                       # Average percentage of cache occupancy
system.icache.tags.occ_task_id_blocks::1024          217                       # Occupied blocks per task id
system.icache.tags.age_task_id_blocks_1024::4          217                       # Occupied blocks per task id
system.icache.tags.occ_task_id_percent::1024     0.847656                       # Percentage of cache occupancy per task id
system.icache.tags.tag_accesses               1251082                       # Number of tag accesses
system.icache.tags.data_accesses              1251082                       # Number of data accesses
system.icache.tags.power_state.pwrStateResidencyTicks::UNDEFINED  18578625000                       # Cumulative time (in ticks) in various power states
system.membus.trans_dist::ReadReq              198308                       # Transaction distribution
system.membus.trans_dist::ReadResp             198308                       # Transaction distribution
system.membus.trans_dist::WritebackDirty       195650                       # Transaction distribution
system.membus.pkt_count_system.cache_small.mem_side::system.mem_ctrl.port       592266                       # Packet count per connected master and slave (bytes)
system.membus.pkt_count_system.cache_small.mem_side::total       592266                       # Packet count per connected master and slave (bytes)
system.membus.pkt_count::total                 592266                       # Packet count per connected master and slave (bytes)
system.membus.pkt_size_system.cache_small.mem_side::system.mem_ctrl.port     25213312                       # Cumulative packet size per connected master and slave (bytes)
system.membus.pkt_size_system.cache_small.mem_side::total     25213312                       # Cumulative packet size per connected master and slave (bytes)
system.membus.pkt_size::total                25213312                       # Cumulative packet size per connected master and slave (bytes)
system.membus.reqLayer2.occupancy          1176558000                       # Layer occupancy (ticks)
system.membus.reqLayer2.utilization               6.3                       # Layer utilization (%)
system.membus.respLayer1.occupancy         1048443500                       # Layer occupancy (ticks)
system.membus.respLayer1.utilization              5.6                       # Layer utilization (%)
system.membus.power_state.pwrStateResidencyTicks::UNDEFINED  18578625000                       # Cumulative time (in ticks) in various power states
system.mem_ctrl.bytes_read::.cpu.inst           26560                       # Number of bytes read from this memory
system.mem_ctrl.bytes_read::.cpu.data        12665152                       # Number of bytes read from this memory
system.mem_ctrl.bytes_read::total            12691712                       # Number of bytes read from this memory
system.mem_ctrl.bytes_inst_read::.cpu.inst        26560                       # Number of instructions bytes read from this memory
system.mem_ctrl.bytes_inst_read::total          26560                       # Number of instructions bytes read from this memory
system.mem_ctrl.bytes_written::.writebacks     12521600                       # Number of bytes written to this memory
system.mem_ctrl.bytes_written::total         12521600                       # Number of bytes written to this memory
system.mem_ctrl.num_reads::.cpu.inst              415                       # Number of read requests responded to by this memory
system.mem_ctrl.num_reads::.cpu.data           197893                       # Number of read requests responded to by this memory
system.mem_ctrl.num_reads::total               198308                       # Number of read requests responded to by this memory
system.mem_ctrl.num_writes::.writebacks        195650                       # Number of write requests responded to by this memory
system.mem_ctrl.num_writes::total              195650                       # Number of write requests responded to by this memory
system.mem_ctrl.bw_read::.cpu.inst            1429600                       # Total read bandwidth from this memory (bytes/s)
system.mem_ctrl.bw_read::.cpu.data          681705562                       # Total read bandwidth from this memory (bytes/s)
system.mem_ctrl.bw_read::total              683135162                       # Total read bandwidth from this memory (bytes/s)
system.mem_ctrl.bw_inst_read::.cpu.inst       1429600                       # Instruction read bandwidth from this memory (bytes/s)
system.mem_ctrl.bw_inst_read::total           1429600                       # Instruction read bandwidth from this memory (bytes/s)
system.mem_ctrl.bw_write::.writebacks       673978833                       # Write bandwidth from this memory (bytes/s)
system.mem_ctrl.bw_write::total             673978833                       # Write bandwidth from this memory (bytes/s)
system.mem_ctrl.bw_total::.writebacks       673978833                       # Total bandwidth to/from this memory (bytes/s)
system.mem_ctrl.bw_total::.cpu.inst           1429600                       # Total bandwidth to/from this memory (bytes/s)
system.mem_ctrl.bw_total::.cpu.data         681705562                       # Total bandwidth to/from this memory (bytes/s)
system.mem_ctrl.bw_total::total            1357113995                       # Total bandwidth to/from this memory (bytes/s)
system.mem_ctrl.avgPriority_.writebacks::samples    195650.00                       # Average QoS priority value for accepted requests
system.mem_ctrl.avgPriority_.cpu.inst::samples       415.00                       # Average QoS priority value for accepted requests
system.mem_ctrl.avgPriority_.cpu.data::samples    197893.00                       # Average QoS priority value for accepted requests
system.mem_ctrl.priorityMinLatency       0.000000018750                       # per QoS priority minimum request to response latency (s)
system.mem_ctrl.priorityMaxLatency       0.000016657750                       # per QoS priority maximum request to response latency (s)
system.mem_ctrl.numReadWriteTurnArounds         12227                       # Number of turnarounds from READ to WRITE
system.mem_ctrl.numWriteReadTurnArounds         12227                       # Number of turnarounds from WRITE to READ
system.mem_ctrl.numStayReadState               584458                       # Number of times bus staying in READ state
system.mem_ctrl.numStayWriteState              183759                       # Number of times bus staying in WRITE state
system.mem_ctrl.readReqs                       198308                       # Number of read requests accepted
system.mem_ctrl.writeReqs                      195650                       # Number of write requests accepted
system.mem_ctrl.readBursts                     198308                       # Number of DRAM read bursts, including those serviced by the write queue
system.mem_ctrl.writeBursts                    195650                       # Number of DRAM write bursts, including those merged in the write queue
system.mem_ctrl.servicedByWrQ                       0                       # Number of DRAM read bursts serviced by the write queue
system.mem_ctrl.mergedWrBursts                      0                       # Number of DRAM write bursts merged with an existing one
system.mem_ctrl.neitherReadNorWriteReqs             0                       # Number of requests that are neither read nor write
system.mem_ctrl.perBankRdBursts::0              12440                       # Per bank write bursts
system.mem_ctrl.perBankRdBursts::1              12371                       # Per bank write bursts
system.mem_ctrl.perBankRdBursts::2              12412                       # Per bank write bursts
system.mem_ctrl.perBankRdBursts::3              12426                       # Per bank write bursts
system.mem_ctrl.perBankRdBursts::4              12425                       # Per bank write bursts
system.mem_ctrl.perBankRdBursts::5              12406                       # Per bank write bursts
system.mem_ctrl.perBankRdBursts::6              12375                       # Per bank write bursts
system.mem_ctrl.perBankRdBursts::7              12361                       # Per bank write bursts
system.mem_ctrl.perBankRdBursts::8              12371                       # Per bank write bursts
system.mem_ctrl.perBankRdBursts::9              12394                       # Per bank write bursts
system.mem_ctrl.perBankRdBursts::10             12380                       # Per bank write bursts
system.mem_ctrl.perBankRdBursts::11             12386                       # Per bank write bursts
system.mem_ctrl.perBankRdBursts::12             12388                       # Per bank write bursts
system.mem_ctrl.perBankRdBursts::13             12415                       # Per bank write bursts
system.mem_ctrl.perBankRdBursts::14             12359                       # Per bank write bursts
system.mem_ctrl.perBankRdBursts::15             12399                       # Per bank write bursts
system.mem_ctrl.perBankWrBursts::0              12226                       # Per bank write bursts
system.mem_ctrl.perBankWrBursts::1              12224                       # Per bank write bursts
system.mem_ctrl.perBankWrBursts::2              12224                       # Per bank write bursts
system.mem_ctrl.perBankWrBursts::3              12227                       # Per bank write bursts
system.mem_ctrl.perBankWrBursts::4              12225                       # Per bank write bursts
system.mem_ctrl.perBankWrBursts::5              12226                       # Per bank write bursts
system.mem_ctrl.perBankWrBursts::6              12228                       # Per bank write bursts
system.mem_ctrl.perBankWrBursts::7              12232                       # Per bank write bursts
system.mem_ctrl.perBankWrBursts::8              12232                       # Per bank write bursts
system.mem_ctrl.perBankWrBursts::9              12232                       # Per bank write bursts
system.mem_ctrl.perBankWrBursts::10             12232                       # Per bank write bursts
system.mem_ctrl.perBankWrBursts::11             12224                       # Per bank write bursts
system.mem_ctrl.perBankWrBursts::12             12224                       # Per bank write bursts
system.mem_ctrl.perBankWrBursts::13             12224                       # Per bank write bursts
system.mem_ctrl.perBankWrBursts::14             12224                       # Per bank write bursts
system.mem_ctrl.perBankWrBursts::15             12228                       # Per bank write bursts
system.mem_ctrl.avgRdQLen                        1.00                       # Average read queue length when enqueuing
system.mem_ctrl.avgWrQLen                       25.62                       # Average write queue length when enqueuing
system.mem_ctrl.totQLat                    1981610500                       # Total ticks spent queuing
system.mem_ctrl.totBusLat                   991540000                       # Total ticks spent in databus transfers
system.mem_ctrl.totMemAccLat               5699885500                       # Total ticks spent from burst creation until serviced by the DRAM
system.mem_ctrl.avgQLat                       9992.59                       # Average queueing delay per DRAM burst
system.mem_ctrl.avgBusLat                     5000.00                       # Average bus latency per DRAM burst
system.mem_ctrl.avgMemAccLat                 28742.59                       # Average memory access latency per DRAM burst
system.mem_ctrl.numRdRetry                          0                       # Number of times read queue was full causing retry
system.mem_ctrl.numWrRetry                          0                       # Number of times write queue was full causing retry
system.mem_ctrl.readRowHits                    171520                       # Number of row buffer hits during reads
system.mem_ctrl.writeRowHits                   170936                       # Number of row buffer hits during writes
system.mem_ctrl.readRowHitRate                  86.49                       # Row buffer hit rate for reads
system.mem_ctrl.writeRowHitRate                 87.37                       # Row buffer hit rate for writes
system.mem_ctrl.readPktSize::0                      0                       # Read request sizes (log2)
system.mem_ctrl.readPktSize::1                      0                       # Read request sizes (log2)
system.mem_ctrl.readPktSize::2                      0                       # Read request sizes (log2)
system.mem_ctrl.readPktSize::3                      0                       # Read request sizes (log2)
system.mem_ctrl.readPktSize::4                      0                       # Read request sizes (log2)
system.mem_ctrl.readPktSize::5                      0                       # Read request sizes (log2)
system.mem_ctrl.readPktSize::6                 198308                       # Read request sizes (log2)
system.mem_ctrl.writePktSize::0                     0                       # Write request sizes (log2)
system.mem_ctrl.writePktSize::1                     0                       # Write request sizes (log2)
system.mem_ctrl.writePktSize::2                     0                       # Write request sizes (log2)
system.mem_ctrl.writePktSize::3                     0                       # Write request sizes (log2)
system.mem_ctrl.writePktSize::4                     0                       # Write request sizes (log2)
system.mem_ctrl.writePktSize::5                     0                       # Write request sizes (log2)
system.mem_ctrl.writePktSize::6                195650                       # Write request sizes (log2)
system.mem_ctrl.rdQLenPdf::0                   198308                       # What read queue length does an incoming req see
system.mem_ctrl.rdQLenPdf::1                        0                       # What read queue length does an incoming req see
system.mem_ctrl.rdQLenPdf::2                        0                       # What read queue length does an incoming req see
system.mem_ctrl.rdQLenPdf::3                        0                       # What read queue length does an incoming req see
system.mem_ctrl.rdQLenPdf::4                        0                       # What read queue length does an incoming req see
system.mem_ctrl.rdQLenPdf::5                        0                       # What read queue length does an incoming req see
system.mem_ctrl.rdQLenPdf::6                        0                       # What read queue length does an incoming req see
system.mem_ctrl.rdQLenPdf::7                        0                       # What read queue length does an incoming req see
system.mem_ctrl.rdQLenPdf::8                        0                       # What read queue length does an incoming req see
system.mem_ctrl.rdQLenPdf::9                        0                       # What read queue length does an incoming req see
system.mem_ctrl.rdQLenPdf::10                       0                       # What read queue length does an incoming req see
system.mem_ctrl.rdQLenPdf::11                       0                       # What read queue length does an incoming req see
system.mem_ctrl.rdQLenPdf::12                       0                       # What read queue length does an incoming req see
system.mem_ctrl.rdQLenPdf::13                       0                       # What read queue length does an incoming req see
system.mem_ctrl.rdQLenPdf::14                       0                       # What read queue length does an incoming req see
system.mem_ctrl.rdQLenPdf::15                       0                       # What read queue length does an incoming req see
system.mem_ctrl.rdQLenPdf::16                       0                       # What read queue length does an incoming req see
system.mem_ctrl.rdQLenPdf::17                       0                       # What read queue length does an incoming req see
system.mem_ctrl.rdQLenPdf::18                       0                       # What read queue length does an incoming req see
system.mem_ctrl.rdQLenPdf::19                       0                       # What read queue length does an incoming req see
system.mem_ctrl.rdQLenPdf::20                       0                       # What read queue length does an incoming req see
system.mem_ctrl.rdQLenPdf::21                       0                       # What read queue length does an incoming req see
system.mem_ctrl.rdQLenPdf::22                       0                       # What read queue length does an incoming req see
system.mem_ctrl.rdQLenPdf::23                       0                       # What read queue length does an incoming req see
system.mem_ctrl.rdQLenPdf::24                       0                       # What read queue length does an incoming req see
system.mem_ctrl.rdQLenPdf::25                       0                       # What read queue length does an incoming req see
system.mem_ctrl.rdQLenPdf::26                       0                       # What read queue length does an incoming req see
system.mem_ctrl.rdQLenPdf::27                       0                       # What read queue length does an incoming req see
system.mem_ctrl.rdQLenPdf::28                       0                       # What read queue length does an incoming req see
system.mem_ctrl.rdQLenPdf::29                       0                       # What read queue length does an incoming req see
system.mem_ctrl.rdQLenPdf::30                       0                       # What read queue length does an incoming req see
system.mem_ctrl.rdQLenPdf::31                       0                       # What read queue length does an incoming req see
system.mem_ctrl.wrQLenPdf::0                        1                       # What write queue length does an incoming req see
system.mem_ctrl.wrQLenPdf::1                        1                       # What write queue length does an incoming req see
system.mem_ctrl.wrQLenPdf::2                        1                       # What write queue length does an incoming req see
system.mem_ctrl.wrQLenPdf::3                        1                       # What write queue length does an incoming req see
system.mem_ctrl.wrQLenPdf::4                        1                       # What write queue length does an incoming req see
system.mem_ctrl.wrQLenPdf::5                        1                       # What write queue length does an incoming req see
system.mem_ctrl.wrQLenPdf::6                        1                       # What write queue length does an incoming req see
system.mem_ctrl.wrQLenPdf::7                        1                       # What write queue length does an incoming req see
system.mem_ctrl.wrQLenPdf::8                        1                       # What write queue length does an incoming req see
system.mem_ctrl.wrQLenPdf::9                        1                       # What write queue length does an incoming req see
system.mem_ctrl.wrQLenPdf::10                       1                       # What write queue length does an incoming req see
system.mem_ctrl.wrQLenPdf::11                       1                       # What write queue length does an incoming req see
system.mem_ctrl.wrQLenPdf::12                       1                       # What write queue length does an incoming req see
system.mem_ctrl.wrQLenPdf::13                       1                       # What write queue length does an incoming req see
system.mem_ctrl.wrQLenPdf::14                       1                       # What write queue length does an incoming req see
system.mem_ctrl.wrQLenPdf::15                       1                       # What write queue length does an incoming req see
system.mem_ctrl.wrQLenPdf::16                       1                       # What write queue length does an incoming req see
system.mem_ctrl.wrQLenPdf::17                   12228                       # What write queue length does an incoming req see
system.mem_ctrl.wrQLenPdf::18                   12227                       # What write queue length does an incoming req see
system.mem_ctrl.wrQLenPdf::19                   12227                       # What write queue length does an incoming req see
system.mem_ctrl.wrQLenPdf::20                   12227                       # What write queue length does an incoming req see
system.mem_ctrl.wrQLenPdf::21                   12227                       # What write queue length does an incoming req see
system.mem_ctrl.wrQLenPdf::22                   12227                       # What write queue length does an incoming req see
system.mem_ctrl.wrQLenPdf::23                   12227                       # What write queue length does an incoming req see
system.mem_ctrl.wrQLenPdf::24                   12227                       # What write queue length does an incoming req see
system.mem_ctrl.wrQLenPdf::25                   12227                       # What write queue length does an incoming req see
system.mem_ctrl.wrQLenPdf::26                   12227                       # What write queue length does an incoming req see
system.mem_ctrl.wrQLenPdf::27                   12227                       # What write queue length does an incoming req see
system.mem_ctrl.wrQLenPdf::28                   12227                       # What write queue length does an incoming req see
system.mem_ctrl.wrQLenPdf::29                   12227                       # What write queue length does an incoming req see
system.mem_ctrl.wrQLenPdf::30                   12227                       # What write queue length does an incoming req see
system.mem_ctrl.wrQLenPdf::31                   12227                       # What write queue length does an incoming req see
system.mem_ctrl.wrQLenPdf::32                   12227                       # What write queue length does an incoming req see
system.mem_ctrl.wrQLenPdf::33                       0                       # What write queue length does an incoming req see
system.mem_ctrl.wrQLenPdf::34                       0                       # What write queue length does an incoming req see
system.mem_ctrl.wrQLenPdf::35                       0                       # What write queue length does an incoming req see
system.mem_ctrl.wrQLenPdf::36                       0                       # What write queue length does an incoming req see
system.mem_ctrl.wrQLenPdf::37                       0                       # What write queue length does an incoming req see
system.mem_ctrl.wrQLenPdf::38                       0                       # What write queue length does an incoming req see
system.mem_ctrl.wrQLenPdf::39                       0                       # What write queue length does an incoming req see
system.mem_ctrl.wrQLenPdf::40                       0                       # What write queue length does an incoming req see
system.mem_ctrl.wrQLenPdf::41                       0                       # What write queue length does an incoming req see
system.mem_ctrl.wrQLenPdf::42                       0                       # What write queue length does an incoming req see
system.mem_ctrl.wrQLenPdf::43                       0                       # What write queue length does an incoming req see
system.mem_ctrl.wrQLenPdf::44                       0                       # What write queue length does an incoming req see
system.mem_ctrl.wrQLenPdf::45                       0                       # What write queue length does an incoming req see
system.mem_ctrl.wrQLenPdf::46                       0                       # What write queue length does an incoming req see
system.mem_ctrl.wrQLenPdf::47                       0                       # What write queue length does an incoming req see
system.mem_ctrl.wrQLenPdf::48                       0                       # What write queue length does an incoming req see
system.mem_ctrl.wrQLenPdf::49                       0                       # What write queue length does an incoming req see
system.mem_ctrl.wrQLenPdf::50                       0                       # What write queue length does an incoming req see
system.mem_ctrl.wrQLenPdf::51                       0                       # What write queue length does an incoming req see
system.mem_ctrl.wrQLenPdf::52                       0                       # What write queue length does an incoming req see
system.mem_ctrl.wrQLenPdf::53                       0                       # What write queue length does an incoming req see
system.mem_ctrl.wrQLenPdf::54                       0                       # What write queue length does an incoming req see
system.mem_ctrl.wrQLenPdf::55                       0                       # What write queue length does an incoming req see
system.mem_ctrl.wrQLenPdf::56                       0                       # What write queue length does an incoming req see
system.mem_ctrl.wrQLenPdf::57                       0                       # What write queue length does an incoming req see
system.mem_ctrl.wrQLenPdf::58                       0                       # What write queue length does an incoming req see
system.mem_ctrl.wrQLenPdf::59                       0                       # What write queue length does an incoming req see
system.mem_ctrl.wrQLenPdf::60                       0                       # What write queue length does an incoming req see
system.mem_ctrl.wrQLenPdf::61                       0                       # What write queue length does an incoming req see
system.mem_ctrl.wrQLenPdf::62                       0                       # What write queue length does an incoming req see
system.mem_ctrl.wrQLenPdf::63                       0                       # What write queue length does an incoming req see
system.mem_ctrl.bytesPerActivate::samples        51480                       # Bytes accessed per row activation
system.mem_ctrl.bytesPerActivate::mean     489.723077                       # Bytes accessed per row activation
system.mem_ctrl.bytesPerActivate::gmean    474.672534                       # Bytes accessed per row activation
system.mem_ctrl.bytesPerActivate::stdev     82.277916                       # Bytes accessed per row activation
system.mem_ctrl.bytesPerActivate::0-127           670      1.30%      1.30% # Bytes accessed per row activation
system.mem_ctrl.bytesPerActivate::128-255         1355      2.63%      3.93% # Bytes accessed per row activation
system.mem_ctrl.bytesPerActivate::256-383         1201      2.33%      6.27% # Bytes accessed per row activation
system.mem_ctrl.bytesPerActivate::384-511         1218      2.37%      8.63% # Bytes accessed per row activation
system.mem_ctrl.bytesPerActivate::512-639        47022     91.34%     99.97% # Bytes accessed per row activation
system.mem_ctrl.bytesPerActivate::640-767            3      0.01%     99.98% # Bytes accessed per row activation
system.mem_ctrl.bytesPerActivate::768-895            4      0.01%     99.99% # Bytes accessed per row activation
system.mem_ctrl.bytesPerActivate::896-1023            3      0.01%     99.99% # Bytes accessed per row activation
system.mem_ctrl.bytesPerActivate::1024-1151            4      0.01%    100.00% # Bytes accessed per row activation
system.mem_ctrl.bytesPerActivate::total         51480                       # Bytes accessed per row activation
system.mem_ctrl.rdPerTurnAround::samples        12227                       # Reads before turning the bus around for writes
system.mem_ctrl.rdPerTurnAround::mean       16.218778                       # Reads before turning the bus around for writes
system.mem_ctrl.rdPerTurnAround::gmean      16.006708                       # Reads before turning the bus around for writes
system.mem_ctrl.rdPerTurnAround::stdev      24.191558                       # Reads before turning the bus around for writes
system.mem_ctrl.rdPerTurnAround::0-127          12226     99.99%     99.99% # Reads before turning the bus around for writes
system.mem_ctrl.rdPerTurnAround::2688-2815            1      0.01%    100.00% # Reads before turning the bus around for writes
system.mem_ctrl.rdPerTurnAround::total          12227                       # Reads before turning the bus around for writes
system.mem_ctrl.wrPerTurnAround::samples        12227                       # Writes before turning the bus around for reads
system.mem_ctrl.wrPerTurnAround::mean              16                       # Writes before turning the bus around for reads
system.mem_ctrl.wrPerTurnAround::gmean      16.000000                       # Writes before turning the bus around for reads
system.mem_ctrl.wrPerTurnAround::16             12227    100.00%    100.00% # Writes before turning the bus around for reads
system.mem_ctrl.wrPerTurnAround::total          12227                       # Writes before turning the bus around for reads
system.mem_ctrl.bytesReadDRAM                12691712                       # Total number of bytes read from DRAM
system.mem_ctrl.bytesReadWrQ                        0                       # Total number of bytes read from write queue
system.mem_ctrl.bytesWritten                 12520448                       # Total number of bytes written to DRAM
system.mem_ctrl.bytesReadSys                 12691712                       # Total read bytes from the system interface side
system.mem_ctrl.bytesWrittenSys              12521600                       # Total written bytes from the system interface side
system.mem_ctrl.avgRdBW                        683.14                       # Average DRAM read bandwidth in MiByte/s
system.mem_ctrl.avgWrBW                        673.92                       # Average achieved write bandwidth in MiByte/s
system.mem_ctrl.avgRdBWSys                     683.14                       # Average system read bandwidth in MiByte/s
system.mem_ctrl.avgWrBWSys                     673.98                       # Average system write bandwidth in MiByte/s
system.mem_ctrl.peakBW                       12800.00                       # Theoretical peak bandwidth in MiByte/s
system.mem_ctrl.busUtil                         10.60                       # Data bus utilization in percentage
system.mem_ctrl.busUtilRead                      5.34                       # Data bus utilization in percentage for reads
system.mem_ctrl.busUtilWrite                     5.26                       # Data bus utilization in percentage for writes
system.mem_ctrl.totGap                    18578581000                       # Total gap between requests
system.mem_ctrl.avgGap                       47158.79                       # Average gap between requests
system.mem_ctrl.masterReadBytes::.cpu.inst        26560                       # Per-master bytes read from memory
system.mem_ctrl.masterReadBytes::.cpu.data     12665152                       # Per-master bytes read from memory
system.mem_ctrl.masterWriteBytes::.writebacks     12520448                       # Per-master bytes write to memory
system.mem_ctrl.masterReadRate::.cpu.inst 1429599.876201817766                       # Per-master bytes read from memory rate (Bytes/sec)
system.mem_ctrl.masterReadRate::.cpu.data 681705562.171581506729                       # Per-master bytes read from memory rate (Bytes/sec)
system.mem_ctrl.masterWriteRate::.writebacks 673916826.460515737534                       # Per-master bytes write to memory rate (Bytes/sec)
system.mem_ctrl.masterReadAccesses::.cpu.inst          415                       # Per-master read serviced memory accesses
system.mem_ctrl.masterReadAccesses::.cpu.data       197893                       # Per-master read serviced memory accesses
system.mem_ctrl.masterWriteAccesses::.writebacks       195650                       # Per-master write serviced memory accesses
system.mem_ctrl.masterReadTotalLat::.cpu.inst     10746000                       # Per-master read total memory access latency
system.mem_ctrl.masterReadTotalLat::.cpu.data   5689139500                       # Per-master read total memory access latency
system.mem_ctrl.masterWriteTotalLat::.writebacks 457830311250                       # Per-master write total memory access latency
system.mem_ctrl.masterReadAvgLat::.cpu.inst     25893.98                       # Per-master read average memory access latency
system.mem_ctrl.masterReadAvgLat::.cpu.data     28748.56                       # Per-master read average memory access latency
system.mem_ctrl.masterWriteAvgLat::.writebacks   2340047.59                       # Per-master write average memory access latency
system.mem_ctrl.pageHitRate                     86.93                       # Row buffer hit rate, read and write combined
system.mem_ctrl.rank1.actEnergy             183583680                       # Energy for activate commands per rank (pJ)
system.mem_ctrl.rank1.preEnergy              97561860                       # Energy for precharge commands per rank (pJ)
system.mem_ctrl.rank1.readEnergy            707516880                       # Energy for read commands per rank (pJ)
system.mem_ctrl.rank1.writeEnergy           510620400                       # Energy for write commands per rank (pJ)
system.mem_ctrl.rank1.refreshEnergy      1466531040.000000                       # Energy for refresh commands per rank (pJ)
system.mem_ctrl.rank1.actBackEnergy        7637514930                       # Energy for active background per rank (pJ)
system.mem_ctrl.rank1.preBackEnergy         702600480                       # Energy for precharge background per rank (pJ)
system.mem_ctrl.rank1.actPowerDownEnergy            0                       # Energy for active power-down per rank (pJ)
system.mem_ctrl.rank1.prePowerDownEnergy            0                       # Energy for precharge power-down per rank (pJ)
system.mem_ctrl.rank1.selfRefreshEnergy             0                       # Energy for self refresh per rank (pJ)
system.mem_ctrl.rank1.totalEnergy         11305929270                       # Total energy per rank (pJ)
system.mem_ctrl.rank1.averagePower         608.544996                       # Core power per rank (mW)
system.mem_ctrl.rank1.totalIdleTime                 0                       # Total Idle time Per DRAM Rank
system.mem_ctrl.rank1.memoryStateTime::IDLE   1763609500                       # Time in different power states
system.mem_ctrl.rank1.memoryStateTime::REF    620360000                       # Time in different power states
system.mem_ctrl.rank1.memoryStateTime::SREF            0                       # Time in different power states
system.mem_ctrl.rank1.memoryStateTime::PRE_PDN            0                       # Time in different power states
system.mem_ctrl.rank1.memoryStateTime::ACT  16194655500                       # Time in different power states
system.mem_ctrl.rank1.memoryStateTime::ACT_PDN            0                       # Time in different power states
system.mem_ctrl.rank0.actEnergy             184012080                       # Energy for activate commands per rank (pJ)
system.mem_ctrl.rank0.preEnergy              97804740                       # Energy for precharge commands per rank (pJ)
system.mem_ctrl.rank0.readEnergy            708402240                       # Energy for read commands per rank (pJ)
system.mem_ctrl.rank0.writeEnergy           510578640                       # Energy for write commands per rank (pJ)
system.mem_ctrl.rank0.refreshEnergy      1466531040.000000                       # Energy for refresh commands per rank (pJ)
system.mem_ctrl.rank0.actBackEnergy        7643086110                       # Energy for active background per rank (pJ)
system.mem_ctrl.rank0.preBackEnergy         697908960                       # Energy for precharge background per rank (pJ)
system.mem_ctrl.rank0.actPowerDownEnergy            0                       # Energy for active power-down per rank (pJ)
system.mem_ctrl.rank0.prePowerDownEnergy            0                       # Energy for precharge power-down per rank (pJ)
system.mem_ctrl.rank0.selfRefreshEnergy             0                       # Energy for self refresh per rank (pJ)
system.mem_ctrl.rank0.totalEnergy         11308323810                       # Total energy per rank (pJ)
system.mem_ctrl.rank0.averagePower         608.673882                       # Core power per rank (mW)
system.mem_ctrl.rank0.totalIdleTime                 0                       # Total Idle time Per DRAM Rank
system.mem_ctrl.rank0.memoryStateTime::IDLE   1751304500                       # Time in different power states
system.mem_ctrl.rank0.memoryStateTime::REF    620360000                       # Time in different power states
system.mem_ctrl.rank0.memoryStateTime::SREF            0                       # Time in different power states
system.mem_ctrl.rank0.memoryStateTime::PRE_PDN            0                       # Time in different power states
system.mem_ctrl.rank0.memoryStateTime::ACT  16206960500                       # Time in different power states
system.mem_ctrl.rank0.memoryStateTime::ACT_PDN            0                       # Time in different power states
system.mem_ctrl.power_state.pwrStateResidencyTicks::UNDEFINED  18578625000                       # Cumulative time (in ticks) in various power states
system.cache_medium.blocked_cycles::no_mshrs            0                       # number of cycles access was blocked
system.cache_medium.blocked_cycles::no_targets            0                       # number of cycles access was blocked
system.cache_medium.blocked::no_mshrs               0                       # number of cycles access was blocked
system.cache_medium.blocked::no_targets             0                       # number of cycles access was blocked
system.cache_medium.avg_blocked_cycles::no_mshrs          nan                       # average number of cycles each access was blocked
system.cache_medium.avg_blocked_cycles::no_targets          nan                       # average number of cycles each access was blocked
system.cache_medium.replacements                    0                       # number of replacements
system.cache_medium.power_state.pwrStateResidencyTicks::UNDEFINED  18578625000                       # Cumulative time (in ticks) in various power states
system.cache_medium.tags.tagsinuse                  0                       # Cycle average of tags in use
system.cache_medium.tags.total_refs                 0                       # Total number of references to valid blocks.
system.cache_medium.tags.sampled_refs               0                       # Sample count of references to valid blocks.
system.cache_medium.tags.avg_refs                 nan                       # Average number of references to valid blocks.
system.cache_medium.tags.warmup_cycle               0                       # Cycle when the warmup percentage was hit.
system.cache_medium.tags.tag_accesses               0                       # Number of tag accesses
system.cache_medium.tags.data_accesses              0                       # Number of data accesses
system.cache_medium.tags.power_state.pwrStateResidencyTicks::UNDEFINED  18578625000                       # Cumulative time (in ticks) in various power states
system.clk_domain.clock                          1000                       # Clock period in ticks
system.clk_domain.voltage_domain.voltage            1                       # Voltage in Volts
system.dcache.demand_hits::.cpu.data           201769                       # number of demand (read+write) hits
system.dcache.demand_hits::total               201769                       # number of demand (read+write) hits
system.dcache.overall_hits::.cpu.data          201771                       # number of overall hits
system.dcache.overall_hits::total              201771                       # number of overall hits
system.dcache.demand_misses::.cpu.data         197935                       # number of demand (read+write) misses
system.dcache.demand_misses::total             197935                       # number of demand (read+write) misses
system.dcache.overall_misses::.cpu.data        197935                       # number of overall misses
system.dcache.overall_misses::total            197935                       # number of overall misses
system.dcache.demand_miss_latency::.cpu.data  15641212000                       # number of demand (read+write) miss cycles
system.dcache.demand_miss_latency::total  15641212000                       # number of demand (read+write) miss cycles
system.dcache.overall_miss_latency::.cpu.data  15641212000                       # number of overall miss cycles
system.dcache.overall_miss_latency::total  15641212000                       # number of overall miss cycles
system.dcache.demand_accesses::.cpu.data       399704                       # number of demand (read+write) accesses
system.dcache.demand_accesses::total           399704                       # number of demand (read+write) accesses
system.dcache.overall_accesses::.cpu.data       399706                       # number of overall (read+write) accesses
system.dcache.overall_accesses::total          399706                       # number of overall (read+write) accesses
system.dcache.demand_miss_rate::.cpu.data     0.495204                       # miss rate for demand accesses
system.dcache.demand_miss_rate::total        0.495204                       # miss rate for demand accesses
system.dcache.overall_miss_rate::.cpu.data     0.495201                       # miss rate for overall accesses
system.dcache.overall_miss_rate::total       0.495201                       # miss rate for overall accesses
system.dcache.demand_avg_miss_latency::.cpu.data 79021.961755                       # average overall miss latency
system.dcache.demand_avg_miss_latency::total 79021.961755                       # average overall miss latency
system.dcache.overall_avg_miss_latency::.cpu.data 79021.961755                       # average overall miss latency
system.dcache.overall_avg_miss_latency::total 79021.961755                       # average overall miss latency
system.dcache.blocked_cycles::no_mshrs              0                       # number of cycles access was blocked
system.dcache.blocked_cycles::no_targets            0                       # number of cycles access was blocked
system.dcache.blocked::no_mshrs                     0                       # number of cycles access was blocked
system.dcache.blocked::no_targets                   0                       # number of cycles access was blocked
system.dcache.avg_blocked_cycles::no_mshrs          nan                       # average number of cycles each access was blocked
system.dcache.avg_blocked_cycles::no_targets          nan                       # average number of cycles each access was blocked
system.dcache.writebacks::.writebacks          197755                       # number of writebacks
system.dcache.writebacks::total                197755                       # number of writebacks
system.dcache.demand_mshr_misses::.cpu.data       197935                       # number of demand (read+write) MSHR misses
system.dcache.demand_mshr_misses::total        197935                       # number of demand (read+write) MSHR misses
system.dcache.overall_mshr_misses::.cpu.data       197935                       # number of overall MSHR misses
system.dcache.overall_mshr_misses::total       197935                       # number of overall MSHR misses
system.dcache.demand_mshr_miss_latency::.cpu.data  15245344000                       # number of demand (read+write) MSHR miss cycles
system.dcache.demand_mshr_miss_latency::total  15245344000                       # number of demand (read+write) MSHR miss cycles
system.dcache.overall_mshr_miss_latency::.cpu.data  15245344000                       # number of overall MSHR miss cycles
system.dcache.overall_mshr_miss_latency::total  15245344000                       # number of overall MSHR miss cycles
system.dcache.demand_mshr_miss_rate::.cpu.data     0.495204                       # mshr miss rate for demand accesses
system.dcache.demand_mshr_miss_rate::total     0.495204                       # mshr miss rate for demand accesses
system.dcache.overall_mshr_miss_rate::.cpu.data     0.495201                       # mshr miss rate for overall accesses
system.dcache.overall_mshr_miss_rate::total     0.495201                       # mshr miss rate for overall accesses
system.dcache.demand_avg_mshr_miss_latency::.cpu.data 77021.971859                       # average overall mshr miss latency
system.dcache.demand_avg_mshr_miss_latency::total 77021.971859                       # average overall mshr miss latency
[...]
system.dcache.tags.age_task_id_blocks_1024::2          114                       # Occupied blocks per task id
system.dcache.tags.age_task_id_blocks_1024::3          135                       # Occupied blocks per task id
system.dcache.tags.occ_task_id_percent::1024            1                       # Percentage of cache occupancy per task id
system.dcache.tags.tag_accesses               2589390                       # Number of tag accesses
system.dcache.tags.data_accesses              2589390                       # Number of data accesses
system.dcache.tags.power_state.pwrStateResidencyTicks::UNDEFINED  62816761000                       # Cumulative time (in ticks) in various power states
system.cache_large.blocked_cycles::no_mshrs            0                       # number of cycles access was blocked
system.cache_large.blocked_cycles::no_targets            0                       # number of cycles access was blocked
system.cache_large.blocked::no_mshrs                0                       # number of cycles access was blocked
system.cache_large.blocked::no_targets              0                       # number of cycles access was blocked
system.cache_large.avg_blocked_cycles::no_mshrs          nan                       # average number of cycles each access was blocked
system.cache_large.avg_blocked_cycles::no_targets          nan                       # average number of cycles each access was blocked
system.cache_large.replacements                     0                       # number of replacements
system.cache_large.power_state.pwrStateResidencyTicks::UNDEFINED  62816761000                       # Cumulative time (in ticks) in various power states
system.cache_large.tags.tagsinuse                   0                       # Cycle average of tags in use
system.cache_large.tags.total_refs                  0                       # Total number of references to valid blocks.
system.cache_large.tags.sampled_refs                0                       # Sample count of references to valid blocks.
system.cache_large.tags.avg_refs                  nan                       # Average number of references to valid blocks.
system.cache_large.tags.warmup_cycle                0                       # Cycle when the warmup percentage was hit.
system.cache_large.tags.tag_accesses                0                       # Number of tag accesses
system.cache_large.tags.data_accesses               0                       # Number of data accesses
system.cache_large.tags.power_state.pwrStateResidencyTicks::UNDEFINED  62816761000                       # Cumulative time (in ticks) in various power states
system.l2cache.demand_hits::.cpu.inst              45                       # number of demand (read+write) hits
system.l2cache.demand_hits::.cpu.data            5432                       # number of demand (read+write) hits
system.l2cache.demand_hits::total                5477                       # number of demand (read+write) hits
system.l2cache.overall_hits::.cpu.inst             45                       # number of overall hits
system.l2cache.overall_hits::.cpu.data           5432                       # number of overall hits
system.l2cache.overall_hits::total               5477                       # number of overall hits
system.l2cache.demand_misses::.cpu.inst          3369                       # number of demand (read+write) misses
system.l2cache.demand_misses::.cpu.data        526629                       # number of demand (read+write) misses
system.l2cache.demand_misses::total            529998                       # number of demand (read+write) misses
system.l2cache.overall_misses::.cpu.inst         3369                       # number of overall misses
system.l2cache.overall_misses::.cpu.data       526629                       # number of overall misses
system.l2cache.overall_misses::total           529998                       # number of overall misses
system.l2cache.demand_miss_latency::.cpu.inst     92617000                       # number of demand (read+write) miss cycles
system.l2cache.demand_miss_latency::.cpu.data  38066067000                       # number of demand (read+write) miss cycles
system.l2cache.demand_miss_latency::total  38158684000                       # number of demand (read+write) miss cycles
system.l2cache.overall_miss_latency::.cpu.inst     92617000                       # number of overall miss cycles
system.l2cache.overall_miss_latency::.cpu.data  38066067000                       # number of overall miss cycles
system.l2cache.overall_miss_latency::total  38158684000                       # number of overall miss cycles
system.l2cache.demand_accesses::.cpu.inst         3414                       # number of demand (read+write) accesses
system.l2cache.demand_accesses::.cpu.data       532061                       # number of demand (read+write) accesses
system.l2cache.demand_accesses::total          535475                       # number of demand (read+write) accesses
system.l2cache.overall_accesses::.cpu.inst         3414                       # number of overall (read+write) accesses
system.l2cache.overall_accesses::.cpu.data       532061                       # number of overall (read+write) accesses
system.l2cache.overall_accesses::total         535475                       # number of overall (read+write) accesses
system.l2cache.demand_miss_rate::.cpu.inst     0.986819                       # miss rate for demand accesses
system.l2cache.demand_miss_rate::.cpu.data     0.989791                       # miss rate for demand accesses
system.l2cache.demand_miss_rate::total       0.989772                       # miss rate for demand accesses
system.l2cache.overall_miss_rate::.cpu.inst     0.986819                       # miss rate for overall accesses
system.l2cache.overall_miss_rate::.cpu.data     0.989791                       # miss rate for overall accesses
system.l2cache.overall_miss_rate::total      0.989772                       # miss rate for overall accesses
system.l2cache.demand_avg_miss_latency::.cpu.inst 27490.946869                       # average overall miss latency
system.l2cache.demand_avg_miss_latency::.cpu.data 72282.511977                       # average overall miss latency
system.l2cache.demand_avg_miss_latency::total 71997.788671                       # average overall miss latency
system.l2cache.overall_avg_miss_latency::.cpu.inst 27490.946869                       # average overall miss latency
system.l2cache.overall_avg_miss_latency::.cpu.data 72282.511977                       # average overall miss latency
system.l2cache.overall_avg_miss_latency::total 71997.788671                       # average overall miss latency
system.l2cache.blocked_cycles::no_mshrs             0                       # number of cycles access was blocked
system.l2cache.blocked_cycles::no_targets            0                       # number of cycles access was blocked
system.l2cache.blocked::no_mshrs                    0                       # number of cycles access was blocked
system.l2cache.blocked::no_targets                  0                       # number of cycles access was blocked
system.l2cache.avg_blocked_cycles::no_mshrs          nan                       # average number of cycles each access was blocked
system.l2cache.avg_blocked_cycles::no_targets          nan                       # average number of cycles each access was blocked
system.l2cache.writebacks::.writebacks         523926                       # number of writebacks
system.l2cache.writebacks::total               523926                       # number of writebacks
system.l2cache.demand_mshr_misses::.cpu.inst         3369                       # number of demand (read+write) MSHR misses
system.l2cache.demand_mshr_misses::.cpu.data       526629                       # number of demand (read+write) MSHR misses
system.l2cache.demand_mshr_misses::total       529998                       # number of demand (read+write) MSHR misses
system.l2cache.overall_mshr_misses::.cpu.inst         3369                       # number of overall MSHR misses
system.l2cache.overall_mshr_misses::.cpu.data       526629                       # number of overall MSHR misses
system.l2cache.overall_mshr_misses::total       529998                       # number of overall MSHR misses
system.l2cache.demand_mshr_miss_latency::.cpu.inst     85879000                       # number of demand (read+write) MSHR miss cycles
system.l2cache.demand_mshr_miss_latency::.cpu.data  37012809000                       # number of demand (read+write) MSHR miss cycles
system.l2cache.demand_mshr_miss_latency::total  37098688000                       # number of demand (read+write) MSHR miss cycles
system.l2cache.overall_mshr_miss_latency::.cpu.inst     85879000                       # number of overall MSHR miss cycles
system.l2cache.overall_mshr_miss_latency::.cpu.data  37012809000                       # number of overall MSHR miss cycles
system.l2cache.overall_mshr_miss_latency::total  37098688000                       # number of overall MSHR miss cycles
system.l2cache.demand_mshr_miss_rate::.cpu.inst     0.986819                       # mshr miss rate for demand accesses
system.l2cache.demand_mshr_miss_rate::.cpu.data     0.989791                       # mshr miss rate for demand accesses
system.l2cache.demand_mshr_miss_rate::total     0.989772                       # mshr miss rate for demand accesses
system.l2cache.overall_mshr_miss_rate::.cpu.inst     0.986819                       # mshr miss rate for overall accesses
system.l2cache.overall_mshr_miss_rate::.cpu.data     0.989791                       # mshr miss rate for overall accesses
system.l2cache.overall_mshr_miss_rate::total     0.989772                       # mshr miss rate for overall accesses
system.l2cache.demand_avg_mshr_miss_latency::.cpu.inst 25490.946869                       # average overall mshr miss latency
system.l2cache.demand_avg_mshr_miss_latency::.cpu.data 70282.511977                       # average overall mshr miss latency
system.l2cache.demand_avg_mshr_miss_latency::total 69997.788671                       # average overall mshr miss latency
system.l2cache.overall_avg_mshr_miss_latency::.cpu.inst 25490.946869                       # average overall mshr miss latency
system.l2cache.overall_avg_mshr_miss_latency::.cpu.data 70282.511977                       # average overall mshr miss latency
system.l2cache.overall_avg_mshr_miss_latency::total 69997.788671                       # average overall mshr miss latency
system.l2cache.replacements                    532318                       # number of replacements
system.l2cache.ReadReq_hits::.cpu.inst             45                       # number of ReadReq hits
system.l2cache.ReadReq_hits::.cpu.data           5432                       # number of ReadReq hits
system.l2cache.ReadReq_hits::total               5477                       # number of ReadReq hits
system.l2cache.ReadReq_misses::.cpu.inst         3369                       # number of ReadReq misses
system.l2cache.ReadReq_misses::.cpu.data       526629                       # number of ReadReq misses
system.l2cache.ReadReq_misses::total           529998                       # number of ReadReq misses
system.l2cache.ReadReq_miss_latency::.cpu.inst     92617000                       # number of ReadReq miss cycles
system.l2cache.ReadReq_miss_latency::.cpu.data  38066067000                       # number of ReadReq miss cycles
system.l2cache.ReadReq_miss_latency::total  38158684000                       # number of ReadReq miss cycles
system.l2cache.ReadReq_accesses::.cpu.inst         3414                       # number of ReadReq accesses(hits+misses)
system.l2cache.ReadReq_accesses::.cpu.data       532061                       # number of ReadReq accesses(hits+misses)
system.l2cache.ReadReq_accesses::total         535475                       # number of ReadReq accesses(hits+misses)
system.l2cache.ReadReq_miss_rate::.cpu.inst     0.986819                       # miss rate for ReadReq accesses
system.l2cache.ReadReq_miss_rate::.cpu.data     0.989791                       # miss rate for ReadReq accesses
system.l2cache.ReadReq_miss_rate::total      0.989772                       # miss rate for ReadReq accesses
system.l2cache.ReadReq_avg_miss_latency::.cpu.inst 27490.946869                       # average ReadReq miss latency
system.l2cache.ReadReq_avg_miss_latency::.cpu.data 72282.511977                       # average ReadReq miss latency
system.l2cache.ReadReq_avg_miss_latency::total 71997.788671                       # average ReadReq miss latency
system.l2cache.ReadReq_mshr_misses::.cpu.inst         3369                       # number of ReadReq MSHR misses
system.l2cache.ReadReq_mshr_misses::.cpu.data       526629                       # number of ReadReq MSHR misses
system.l2cache.ReadReq_mshr_misses::total       529998                       # number of ReadReq MSHR misses
system.l2cache.ReadReq_mshr_miss_latency::.cpu.inst     85879000                       # number of ReadReq MSHR miss cycles
system.l2cache.ReadReq_mshr_miss_latency::.cpu.data  37012809000                       # number of ReadReq MSHR miss cycles
system.l2cache.ReadReq_mshr_miss_latency::total  37098688000                       # number of ReadReq MSHR miss cycles
system.l2cache.ReadReq_mshr_miss_rate::.cpu.inst     0.986819                       # mshr miss rate for ReadReq accesses
system.l2cache.ReadReq_mshr_miss_rate::.cpu.data     0.989791                       # mshr miss rate for ReadReq accesses
system.l2cache.ReadReq_mshr_miss_rate::total     0.989772                       # mshr miss rate for ReadReq accesses
system.l2cache.ReadReq_avg_mshr_miss_latency::.cpu.inst 25490.946869                       # average ReadReq mshr miss latency
system.l2cache.ReadReq_avg_mshr_miss_latency::.cpu.data 70282.511977                       # average ReadReq mshr miss latency
system.l2cache.ReadReq_avg_mshr_miss_latency::total 69997.788671                       # average ReadReq mshr miss latency
system.l2cache.WritebackDirty_hits::.writebacks       526327                       # number of WritebackDirty hits
system.l2cache.WritebackDirty_hits::total       526327                       # number of WritebackDirty hits
system.l2cache.WritebackDirty_accesses::.writebacks       526327                       # number of WritebackDirty accesses(hits+misses)
system.l2cache.WritebackDirty_accesses::total       526327                       # number of WritebackDirty accesses(hits+misses)
system.l2cache.power_state.pwrStateResidencyTicks::UNDEFINED  62816761000                       # Cumulative time (in ticks) in various power states
system.l2cache.tags.tagsinuse              419.841713                       # Cycle average of tags in use
system.l2cache.tags.total_refs                1061802                       # Total number of references to valid blocks.
system.l2cache.tags.sampled_refs               532830                       # Sample count of references to valid blocks.
system.l2cache.tags.avg_refs                 1.992759                       # Average number of references to valid blocks.
system.l2cache.tags.warmup_cycle                78000                       # Cycle when the warmup percentage was hit.
system.l2cache.tags.occ_blocks::.writebacks    47.242745                       # Average occupied blocks per requestor
system.l2cache.tags.occ_blocks::.cpu.inst   212.273273                       # Average occupied blocks per requestor
system.l2cache.tags.occ_blocks::.cpu.data   160.325695                       # Average occupied blocks per requestor
system.l2cache.tags.occ_percent::.writebacks     0.092271                       # Average percentage of cache occupancy
system.l2cache.tags.occ_percent::.cpu.inst     0.414596                       # Average percentage of cache occupancy
system.l2cache.tags.occ_percent::.cpu.data     0.313136                       # Average percentage of cache occupancy
system.l2cache.tags.occ_percent::total       0.820003                       # Average percentage of cache occupancy
system.l2cache.tags.occ_task_id_blocks::1024          512                       # Occupied blocks per task id
system.l2cache.tags.age_task_id_blocks_1024::0            2                       # Occupied blocks per task id
system.l2cache.tags.age_task_id_blocks_1024::1            7                       # Occupied blocks per task id
system.l2cache.tags.age_task_id_blocks_1024::2          138                       # Occupied blocks per task id
system.l2cache.tags.age_task_id_blocks_1024::3          365                       # Occupied blocks per task id
system.l2cache.tags.occ_task_id_percent::1024            1                       # Percentage of cache occupancy per task id
system.l2cache.tags.tag_accesses              1594632                       # Number of tag accesses
system.l2cache.tags.data_accesses             1594632                       # Number of data accesses
system.l2cache.tags.power_state.pwrStateResidencyTicks::UNDEFINED  62816761000                       # Cumulative time (in ticks) in various power states
system.l2bar.trans_dist::ReadReq               535475                       # Transaction distribution
system.l2bar.trans_dist::ReadResp              535475                       # Transaction distribution
system.l2bar.trans_dist::WritebackDirty        526327                       # Transaction distribution
system.l2bar.pkt_count_system.dcache.mem_side::system.l2cache.cpu_side      1590449                       # Packet count per connected master and slave (bytes)
system.l2bar.pkt_count_system.icache.mem_side::system.l2cache.cpu_side         6828                       # Packet count per connected master and slave (bytes)
system.l2bar.pkt_count::total                 1597277                       # Packet count per connected master and slave (bytes)
system.l2bar.pkt_size_system.dcache.mem_side::system.l2cache.cpu_side     67736832                       # Cumulative packet size per connected master and slave (bytes)
system.l2bar.pkt_size_system.icache.mem_side::system.l2cache.cpu_side       218496                       # Cumulative packet size per connected master and slave (bytes)
system.l2bar.pkt_size::total                 67955328                       # Cumulative packet size per connected master and slave (bytes)
system.l2bar.respLayer1.occupancy            17070000                       # Layer occupancy (ticks)
system.l2bar.respLayer1.utilization               0.0                       # Layer utilization (%)
system.l2bar.reqLayer0.occupancy           3167110000                       # Layer occupancy (ticks)
system.l2bar.reqLayer0.utilization                5.0                       # Layer utilization (%)
system.l2bar.respLayer0.occupancy          2660305000                       # Layer occupancy (ticks)
system.l2bar.respLayer0.utilization               4.2                       # Layer utilization (%)
system.l2bar.power_state.pwrStateResidencyTicks::UNDEFINED  62816761000                       # Cumulative time (in ticks) in various power states
system.cpu.dtb.walker.power_state.pwrStateResidencyTicks::UNDEFINED  62816761000                       # Cumulative time (in ticks) in various power states
system.cpu.interrupts.clk_domain.clock          16000                       # Clock period in ticks
system.cpu.itb.walker.power_state.pwrStateResidencyTicks::UNDEFINED  62816761000                       # Cumulative time (in ticks) in various power states
system.cpu.power_state.numTransitions               1                       # Number of power state transitions
system.cpu.power_state.pwrStateResidencyTicks::ON  62816761000                       # Cumulative time (in ticks) in various power states

---------- End Simulation Statistics   ----------
