
---------- Begin Simulation Statistics ----------
final_tick                                 3775872000                       # Number of ticks from beginning of simulation (restored from checkpoints and never reset)
host_inst_rate                                 168387                       # Simulator instruction rate (inst/s)
host_mem_usage                               34373648                       # Number of bytes of host memory used
host_op_rate                                   293958                       # Simulator op (including micro ops) rate (op/s)
host_seconds                                     5.97                       # Real time elapsed on the host
host_tick_rate                              632008064                       # Simulator tick rate (ticks/s)
sim_freq                                 1000000000000                       # Frequency of simulated ticks
sim_insts                                     1005967                       # Number of instructions simulated
sim_ops                                       1756206                       # Number of ops (including micro ops) simulated
sim_seconds                                  0.003776                       # Number of seconds simulated
sim_ticks                                  3775872000                       # Number of ticks simulated
system.cpu.Branches                            175664                       # Number of branches fetched
system.cpu.committedInsts                     1005967                       # Number of instructions committed
system.cpu.committedOps                       1756206                       # Number of ops (including micro ops) committed
system.cpu.dtb.rdAccesses                      242818                       # TLB accesses on read requests
system.cpu.dtb.rdMisses                            40                       # TLB misses on read requests
system.cpu.dtb.wrAccesses                      109650                       # TLB accesses on write requests
system.cpu.dtb.wrMisses                            50                       # TLB misses on write requests
system.cpu.idle_fraction                            0                       # Percentage of idle cycles
system.cpu.itb.rdAccesses                           0                       # TLB accesses on read requests
system.cpu.itb.rdMisses                             0                       # TLB misses on read requests
system.cpu.itb.wrAccesses                     1318966                       # TLB accesses on write requests
system.cpu.itb.wrMisses                           197                       # TLB misses on write requests
system.cpu.not_idle_fraction                        1                       # Percentage of non-idle cycles
system.cpu.numCycles                          3775861                       # number of cpu cycles simulated
system.cpu.numWorkItemsCompleted                    0                       # number of work items this cpu completed
system.cpu.numWorkItemsStarted                      0                       # number of work items this cpu started
system.cpu.num_busy_cycles                    3775861                       # Number of busy cycles
system.cpu.num_cc_register_reads               790039                       # number of times the CC registers were read
system.cpu.num_cc_register_writes              614436                       # number of times the CC registers were written
system.cpu.num_conditional_control_insts       125681                       # number of instructions that are conditional controls
system.cpu.num_fp_alu_accesses                 228755                       # Number of float alu accesses
system.cpu.num_fp_insts                        228755                       # number of float instructions
system.cpu.num_fp_register_reads               298240                       # number of times the floating registers were read
system.cpu.num_fp_register_writes              191100                       # number of times the floating registers were written
system.cpu.num_func_calls                       39256                       # number of times a function call or return occured
system.cpu.num_idle_cycles                          0                       # Number of idle cycles
system.cpu.num_int_alu_accesses               1632283                       # Number of integer alu accesses
system.cpu.num_int_insts                      1632283                       # number of integer instructions
system.cpu.num_int_register_reads             3379522                       # number of times the integer registers were read
system.cpu.num_int_register_writes            1419325                       # number of times the integer registers were written
system.cpu.num_load_insts                      242790                       # Number of load instructions
system.cpu.num_mem_refs                        352409                       # number of memory refs
system.cpu.num_store_insts                     109619                       # Number of store instructions
system.cpu.num_vec_alu_accesses                     0                       # Number of vector alu accesses
system.cpu.num_vec_insts                            0                       # number of vector instructions
system.cpu.num_vec_register_reads                   0                       # number of times the vector registers were read
system.cpu.num_vec_register_writes                  0                       # number of times the vector registers were written
system.cpu.op_class::No_OpClass                 13820      0.79%      0.79% # Class of executed instruction
system.cpu.op_class::IntAlu                   1218945     69.41%     70.19% # Class of executed instruction
system.cpu.op_class::IntMult                    11643      0.66%     70.86% # Class of executed instruction
system.cpu.op_class::IntDiv                     73003      4.16%     75.01% # Class of executed instruction
system.cpu.op_class::FloatAdd                     141      0.01%     75.02% # Class of executed instruction
system.cpu.op_class::FloatCmp                       0      0.00%     75.02% # Class of executed instruction
system.cpu.op_class::FloatCvt                       0      0.00%     75.02% # Class of executed instruction
system.cpu.op_class::FloatMult                      0      0.00%     75.02% # Class of executed instruction
system.cpu.op_class::FloatMultAcc                   0      0.00%     75.02% # Class of executed instruction
system.cpu.op_class::FloatDiv                       0      0.00%     75.02% # Class of executed instruction
system.cpu.op_class::FloatMisc                      0      0.00%     75.02% # Class of executed instruction
system.cpu.op_class::FloatSqrt                      0      0.00%     75.02% # Class of executed instruction
system.cpu.op_class::SimdAdd                       26      0.00%     75.02% # Class of executed instruction
system.cpu.op_class::SimdAddAcc                     0      0.00%     75.02% # Class of executed instruction
system.cpu.op_class::SimdAlu                    11254      0.64%     75.66% # Class of executed instruction
system.cpu.op_class::SimdCmp                        0      0.00%     75.66% # Class of executed instruction
system.cpu.op_class::SimdCvt                      382      0.02%     75.69% # Class of executed instruction
system.cpu.op_class::SimdMisc                    3927      0.22%     75.91% # Class of executed instruction
system.cpu.op_class::SimdMult                       0      0.00%     75.91% # Class of executed instruction
system.cpu.op_class::SimdMultAcc                    0      0.00%     75.91% # Class of executed instruction
system.cpu.op_class::SimdShift                      0      0.00%     75.91% # Class of executed instruction
system.cpu.op_class::SimdShiftAcc                   0      0.00%     75.91% # Class of executed instruction
system.cpu.op_class::SimdDiv                        0      0.00%     75.91% # Class of executed instruction
system.cpu.op_class::SimdSqrt                       0      0.00%     75.91% # Class of executed instruction
system.cpu.op_class::SimdFloatAdd               23154      1.32%     77.23% # Class of executed instruction
system.cpu.op_class::SimdFloatAlu                   0      0.00%     77.23% # Class of executed instruction
system.cpu.op_class::SimdFloatCmp                   0      0.00%     77.23% # Class of executed instruction
system.cpu.op_class::SimdFloatCvt                7810      0.44%     77.67% # Class of executed instruction
system.cpu.op_class::SimdFloatDiv                 224      0.01%     77.69% # Class of executed instruction
system.cpu.op_class::SimdFloatMisc                  0      0.00%     77.69% # Class of executed instruction
system.cpu.op_class::SimdFloatMult              39488      2.25%     79.93% # Class of executed instruction
system.cpu.op_class::SimdFloatMultAcc               0      0.00%     79.93% # Class of executed instruction
system.cpu.op_class::SimdFloatSqrt                  0      0.00%     79.93% # Class of executed instruction
system.cpu.op_class::SimdReduceAdd                  0      0.00%     79.93% # Class of executed instruction
system.cpu.op_class::SimdReduceAlu                  0      0.00%     79.93% # Class of executed instruction
system.cpu.op_class::SimdReduceCmp                  0      0.00%     79.93% # Class of executed instruction
system.cpu.op_class::SimdFloatReduceAdd             0      0.00%     79.93% # Class of executed instruction
system.cpu.op_class::SimdFloatReduceCmp             0      0.00%     79.93% # Class of executed instruction
system.cpu.op_class::SimdAes                        0      0.00%     79.93% # Class of executed instruction
system.cpu.op_class::SimdAesMix                     0      0.00%     79.93% # Class of executed instruction
system.cpu.op_class::SimdSha1Hash                   0      0.00%     79.93% # Class of executed instruction
system.cpu.op_class::SimdSha1Hash2                  0      0.00%     79.93% # Class of executed instruction
system.cpu.op_class::SimdSha256Hash                 0      0.00%     79.93% # Class of executed instruction
system.cpu.op_class::SimdSha256Hash2                0      0.00%     79.93% # Class of executed instruction
system.cpu.op_class::SimdShaSigma2                  0      0.00%     79.93% # Class of executed instruction
system.cpu.op_class::SimdShaSigma3                  0      0.00%     79.93% # Class of executed instruction
system.cpu.op_class::SimdPredAlu                    0      0.00%     79.93% # Class of executed instruction
system.cpu.op_class::MemRead                   149285      8.50%     88.43% # Class of executed instruction
system.cpu.op_class::MemWrite                   77448      4.41%     92.84% # Class of executed instruction
system.cpu.op_class::FloatMemRead               93505      5.32%     98.17% # Class of executed instruction
system.cpu.op_class::FloatMemWrite              32171      1.83%    100.00% # Class of executed instruction
system.cpu.op_class::IprAccess                      0      0.00%    100.00% # Class of executed instruction
system.cpu.op_class::InstPrefetch                   0      0.00%    100.00% # Class of executed instruction
system.cpu.op_class::total                    1756226                       # Class of executed instruction
system.cpu.workload.numSyscalls                    16                       # Number of system calls
system.dynamic_cache.flushTicks                     0                       # Ticks taken to flush
system.dynamic_cache.numFlushes                     0                       # Number of Flushes Taken
system.cache_small.demand_hits::.cpu.inst          615                       # number of demand (read+write) hits
system.cache_small.demand_hits::.cpu.data         1683                       # number of demand (read+write) hits
system.cache_small.demand_hits::total            2298                       # number of demand (read+write) hits
system.cache_small.overall_hits::.cpu.inst          615                       # number of overall hits
system.cache_small.overall_hits::.cpu.data         1683                       # number of overall hits
system.cache_small.overall_hits::total           2298                       # number of overall hits
system.cache_small.demand_misses::.cpu.inst         2598                       # number of demand (read+write) misses
system.cache_small.demand_misses::.cpu.data         1952                       # number of demand (read+write) misses
system.cache_small.demand_misses::total          4550                       # number of demand (read+write) misses
system.cache_small.overall_misses::.cpu.inst         2598                       # number of overall misses
system.cache_small.overall_misses::.cpu.data         1952                       # number of overall misses
system.cache_small.overall_misses::total         4550                       # number of overall misses
system.cache_small.demand_miss_latency::.cpu.inst    158000000                       # number of demand (read+write) miss cycles
system.cache_small.demand_miss_latency::.cpu.data    114369000                       # number of demand (read+write) miss cycles
system.cache_small.demand_miss_latency::total    272369000                       # number of demand (read+write) miss cycles
system.cache_small.overall_miss_latency::.cpu.inst    158000000                       # number of overall miss cycles
system.cache_small.overall_miss_latency::.cpu.data    114369000                       # number of overall miss cycles
system.cache_small.overall_miss_latency::total    272369000                       # number of overall miss cycles
system.cache_small.demand_accesses::.cpu.inst         3213                       # number of demand (read+write) accesses
system.cache_small.demand_accesses::.cpu.data         3635                       # number of demand (read+write) accesses
system.cache_small.demand_accesses::total         6848                       # number of demand (read+write) accesses
system.cache_small.overall_accesses::.cpu.inst         3213                       # number of overall (read+write) accesses
system.cache_small.overall_accesses::.cpu.data         3635                       # number of overall (read+write) accesses
system.cache_small.overall_accesses::total         6848                       # number of overall (read+write) accesses
system.cache_small.demand_miss_rate::.cpu.inst     0.808590                       # miss rate for demand accesses
system.cache_small.demand_miss_rate::.cpu.data     0.537001                       # miss rate for demand accesses
system.cache_small.demand_miss_rate::total     0.664428                       # miss rate for demand accesses
system.cache_small.overall_miss_rate::.cpu.inst     0.808590                       # miss rate for overall accesses
system.cache_small.overall_miss_rate::.cpu.data     0.537001                       # miss rate for overall accesses
system.cache_small.overall_miss_rate::total     0.664428                       # miss rate for overall accesses
system.cache_small.demand_avg_miss_latency::.cpu.inst 60816.012317                       # average overall miss latency
system.cache_small.demand_avg_miss_latency::.cpu.data 58590.676230                       # average overall miss latency
system.cache_small.demand_avg_miss_latency::total 59861.318681                       # average overall miss latency
system.cache_small.overall_avg_miss_latency::.cpu.inst 60816.012317                       # average overall miss latency
system.cache_small.overall_avg_miss_latency::.cpu.data 58590.676230                       # average overall miss latency
system.cache_small.overall_avg_miss_latency::total 59861.318681                       # average overall miss latency
system.cache_small.blocked_cycles::no_mshrs            0                       # number of cycles access was blocked
system.cache_small.blocked_cycles::no_targets            0                       # number of cycles access was blocked
system.cache_small.blocked::no_mshrs                0                       # number of cycles access was blocked
system.cache_small.blocked::no_targets              0                       # number of cycles access was blocked
system.cache_small.avg_blocked_cycles::no_mshrs          nan                       # average number of cycles each access was blocked
system.cache_small.avg_blocked_cycles::no_targets          nan                       # average number of cycles each access was blocked
system.cache_small.writebacks::.writebacks          477                       # number of writebacks
system.cache_small.writebacks::total              477                       # number of writebacks
system.cache_small.demand_mshr_misses::.cpu.inst         2598                       # number of demand (read+write) MSHR misses
system.cache_small.demand_mshr_misses::.cpu.data         1952                       # number of demand (read+write) MSHR misses
system.cache_small.demand_mshr_misses::total         4550                       # number of demand (read+write) MSHR misses
system.cache_small.overall_mshr_misses::.cpu.inst         2598                       # number of overall MSHR misses
system.cache_small.overall_mshr_misses::.cpu.data         1952                       # number of overall MSHR misses
system.cache_small.overall_mshr_misses::total         4550                       # number of overall MSHR misses
system.cache_small.demand_mshr_miss_latency::.cpu.inst    152804000                       # number of demand (read+write) MSHR miss cycles
system.cache_small.demand_mshr_miss_latency::.cpu.data    110465000                       # number of demand (read+write) MSHR miss cycles
system.cache_small.demand_mshr_miss_latency::total    263269000                       # number of demand (read+write) MSHR miss cycles
system.cache_small.overall_mshr_miss_latency::.cpu.inst    152804000                       # number of overall MSHR miss cycles
system.cache_small.overall_mshr_miss_latency::.cpu.data    110465000                       # number of overall MSHR miss cycles
system.cache_small.overall_mshr_miss_latency::total    263269000                       # number of overall MSHR miss cycles
system.cache_small.demand_mshr_miss_rate::.cpu.inst     0.808590                       # mshr miss rate for demand accesses
system.cache_small.demand_mshr_miss_rate::.cpu.data     0.537001                       # mshr miss rate for demand accesses
system.cache_small.demand_mshr_miss_rate::total     0.664428                       # mshr miss rate for demand accesses
system.cache_small.overall_mshr_miss_rate::.cpu.inst     0.808590                       # mshr miss rate for overall accesses
system.cache_small.overall_mshr_miss_rate::.cpu.data     0.537001                       # mshr miss rate for overall accesses
system.cache_small.overall_mshr_miss_rate::total     0.664428                       # mshr miss rate for overall accesses
system.cache_small.demand_avg_mshr_miss_latency::.cpu.inst 58816.012317                       # average overall mshr miss latency
system.cache_small.demand_avg_mshr_miss_latency::.cpu.data 56590.676230                       # average overall mshr miss latency
system.cache_small.demand_avg_mshr_miss_latency::total 57861.318681                       # average overall mshr miss latency
system.cache_small.overall_avg_mshr_miss_latency::.cpu.inst 58816.012317                       # average overall mshr miss latency
system.cache_small.overall_avg_mshr_miss_latency::.cpu.data 56590.676230                       # average overall mshr miss latency
system.cache_small.overall_avg_mshr_miss_latency::total 57861.318681                       # average overall mshr miss latency
system.cache_small.replacements                  2944                       # number of replacements
system.cache_small.ReadReq_hits::.cpu.inst          615                       # number of ReadReq hits
system.cache_small.ReadReq_hits::.cpu.data         1683                       # number of ReadReq hits
system.cache_small.ReadReq_hits::total           2298                       # number of ReadReq hits
system.cache_small.ReadReq_misses::.cpu.inst         2598                       # number of ReadReq misses
system.cache_small.ReadReq_misses::.cpu.data         1952                       # number of ReadReq misses
system.cache_small.ReadReq_misses::total         4550                       # number of ReadReq misses
system.cache_small.ReadReq_miss_latency::.cpu.inst    158000000                       # number of ReadReq miss cycles
system.cache_small.ReadReq_miss_latency::.cpu.data    114369000                       # number of ReadReq miss cycles
system.cache_small.ReadReq_miss_latency::total    272369000                       # number of ReadReq miss cycles
system.cache_small.ReadReq_accesses::.cpu.inst         3213                       # number of ReadReq accesses(hits+misses)
system.cache_small.ReadReq_accesses::.cpu.data         3635                       # number of ReadReq accesses(hits+misses)
system.cache_small.ReadReq_accesses::total         6848                       # number of ReadReq accesses(hits+misses)
system.cache_small.ReadReq_miss_rate::.cpu.inst     0.808590                       # miss rate for ReadReq accesses
system.cache_small.ReadReq_miss_rate::.cpu.data     0.537001                       # miss rate for ReadReq accesses
system.cache_small.ReadReq_miss_rate::total     0.664428                       # miss rate for ReadReq accesses
system.cache_small.ReadReq_avg_miss_latency::.cpu.inst 60816.012317                       # average ReadReq miss latency
system.cache_small.ReadReq_avg_miss_latency::.cpu.data 58590.676230                       # average ReadReq miss latency
system.cache_small.ReadReq_avg_miss_latency::total 59861.318681                       # average ReadReq miss latency
system.cache_small.ReadReq_mshr_misses::.cpu.inst         2598                       # number of ReadReq MSHR misses
system.cache_small.ReadReq_mshr_misses::.cpu.data         1952                       # number of ReadReq MSHR misses
system.cache_small.ReadReq_mshr_misses::total         4550                       # number of ReadReq MSHR misses
system.cache_small.ReadReq_mshr_miss_latency::.cpu.inst    152804000                       # number of ReadReq MSHR miss cycles
system.cache_small.ReadReq_mshr_miss_latency::.cpu.data    110465000                       # number of ReadReq MSHR miss cycles
system.cache_small.ReadReq_mshr_miss_latency::total    263269000                       # number of ReadReq MSHR miss cycles
system.cache_small.ReadReq_mshr_miss_rate::.cpu.inst     0.808590                       # mshr miss rate for ReadReq accesses
system.cache_small.ReadReq_mshr_miss_rate::.cpu.data     0.537001                       # mshr miss rate for ReadReq accesses
system.cache_small.ReadReq_mshr_miss_rate::total     0.664428                       # mshr miss rate for ReadReq accesses
system.cache_small.ReadReq_avg_mshr_miss_latency::.cpu.inst 58816.012317                       # average ReadReq mshr miss latency
system.cache_small.ReadReq_avg_mshr_miss_latency::.cpu.data 56590.676230                       # average ReadReq mshr miss latency
system.cache_small.ReadReq_avg_mshr_miss_latency::total 57861.318681                       # average ReadReq mshr miss latency
system.cache_small.WritebackDirty_hits::.writebacks         2225                       # number of WritebackDirty hits
system.cache_small.WritebackDirty_hits::total         2225                       # number of WritebackDirty hits
system.cache_small.WritebackDirty_accesses::.writebacks         2225                       # number of WritebackDirty accesses(hits+misses)
system.cache_small.WritebackDirty_accesses::total         2225                       # number of WritebackDirty accesses(hits+misses)
system.cache_small.power_state.pwrStateResidencyTicks::UNDEFINED   3775872000                       # Cumulative time (in ticks) in various power states
system.cache_small.tags.tagsinuse         1767.980064                       # Cycle average of tags in use
system.cache_small.tags.total_refs               4095                       # Total number of references to valid blocks.
system.cache_small.tags.sampled_refs             2944                       # Sample count of references to valid blocks.
system.cache_small.tags.avg_refs             1.390965                       # Average number of references to valid blocks.
system.cache_small.tags.warmup_cycle            76000                       # Cycle when the warmup percentage was hit.
system.cache_small.tags.occ_blocks::.writebacks   207.148803                       # Average occupied blocks per requestor
system.cache_small.tags.occ_blocks::.cpu.inst   681.030905                       # Average occupied blocks per requestor
system.cache_small.tags.occ_blocks::.cpu.data   879.800356                       # Average occupied blocks per requestor
system.cache_small.tags.occ_percent::.writebacks     0.101147                       # Average percentage of cache occupancy
system.cache_small.tags.occ_percent::.cpu.inst     0.332535                       # Average percentage of cache occupancy
system.cache_small.tags.occ_percent::.cpu.data     0.429590                       # Average percentage of cache occupancy
system.cache_small.tags.occ_percent::total     0.863272                       # Average percentage of cache occupancy
system.cache_small.tags.occ_task_id_blocks::1024         2001                       # Occupied blocks per task id
system.cache_small.tags.age_task_id_blocks_1024::1            1                       # Occupied blocks per task id
system.cache_small.tags.age_task_id_blocks_1024::2            2                       # Occupied blocks per task id
system.cache_small.tags.age_task_id_blocks_1024::3         1998                       # Occupied blocks per task id
system.cache_small.tags.occ_task_id_percent::1024     0.977051                       # Percentage of cache occupancy per task id
system.cache_small.tags.tag_accesses            14018                       # Number of tag accesses
system.cache_small.tags.data_accesses           14018                       # Number of data accesses
system.cache_small.tags.power_state.pwrStateResidencyTicks::UNDEFINED   3775872000                       # Cumulative time (in ticks) in various power states
system.icache.demand_hits::.cpu.inst          1315265                       # number of demand (read+write) hits
system.icache.demand_hits::total              1315265                       # number of demand (read+write) hits
system.icache.overall_hits::.cpu.inst         1315265                       # number of overall hits
system.icache.overall_hits::total             1315265                       # number of overall hits
system.icache.demand_misses::.cpu.inst           3701                       # number of demand (read+write) misses
system.icache.demand_misses::total               3701                       # number of demand (read+write) misses
system.icache.overall_misses::.cpu.inst          3701                       # number of overall misses
system.icache.overall_misses::total              3701                       # number of overall misses
system.icache.demand_miss_latency::.cpu.inst    221285000                       # number of demand (read+write) miss cycles
system.icache.demand_miss_latency::total    221285000                       # number of demand (read+write) miss cycles
system.icache.overall_miss_latency::.cpu.inst    221285000                       # number of overall miss cycles
system.icache.overall_miss_latency::total    221285000                       # number of overall miss cycles
system.icache.demand_accesses::.cpu.inst      1318966                       # number of demand (read+write) accesses
system.icache.demand_accesses::total          1318966                       # number of demand (read+write) accesses
system.icache.overall_accesses::.cpu.inst      1318966                       # number of overall (read+write) accesses
system.icache.overall_accesses::total         1318966                       # number of overall (read+write) accesses
system.icache.demand_miss_rate::.cpu.inst     0.002806                       # miss rate for demand accesses
system.icache.demand_miss_rate::total        0.002806                       # miss rate for demand accesses
system.icache.overall_miss_rate::.cpu.inst     0.002806                       # miss rate for overall accesses
system.icache.overall_miss_rate::total       0.002806                       # miss rate for overall accesses
system.icache.demand_avg_miss_latency::.cpu.inst 59790.597136                       # average overall miss latency
system.icache.demand_avg_miss_latency::total 59790.597136                       # average overall miss latency
system.icache.overall_avg_miss_latency::.cpu.inst 59790.597136                       # average overall miss latency
system.icache.overall_avg_miss_latency::total 59790.597136                       # average overall miss latency
system.icache.blocked_cycles::no_mshrs              0                       # number of cycles access was blocked
system.icache.blocked_cycles::no_targets            0                       # number of cycles access was blocked
system.icache.blocked::no_mshrs                     0                       # number of cycles access was blocked
system.icache.blocked::no_targets                   0                       # number of cycles access was blocked
system.icache.avg_blocked_cycles::no_mshrs          nan                       # average number of cycles each access was blocked
system.icache.avg_blocked_cycles::no_targets          nan                       # average number of cycles each access was blocked
system.icache.demand_mshr_misses::.cpu.inst         3701                       # number of demand (read+write) MSHR misses
system.icache.demand_mshr_misses::total          3701                       # number of demand (read+write) MSHR misses
system.icache.overall_mshr_misses::.cpu.inst         3701                       # number of overall MSHR misses
system.icache.overall_mshr_misses::total         3701                       # number of overall MSHR misses
system.icache.demand_mshr_miss_latency::.cpu.inst    213883000                       # number of demand (read+write) MSHR miss cycles
system.icache.demand_mshr_miss_latency::total    213883000                       # number of demand (read+write) MSHR miss cycles
system.icache.overall_mshr_miss_latency::.cpu.inst    213883000                       # number of overall MSHR miss cycles
system.icache.overall_mshr_miss_latency::total    213883000                       # number of overall MSHR miss cycles
system.icache.demand_mshr_miss_rate::.cpu.inst     0.002806                       # mshr miss rate for demand accesses
system.icache.demand_mshr_miss_rate::total     0.002806                       # mshr miss rate for demand accesses
system.icache.overall_mshr_miss_rate::.cpu.inst     0.002806                       # mshr miss rate for overall accesses
system.icache.overall_mshr_miss_rate::total     0.002806                       # mshr miss rate for overall accesses
system.icache.demand_avg_mshr_miss_latency::.cpu.inst 57790.597136                       # average overall mshr miss latency
system.icache.demand_avg_mshr_miss_latency::total 57790.597136                       # average overall mshr miss latency
system.icache.overall_avg_mshr_miss_latency::.cpu.inst 57790.597136                       # average overall mshr miss latency
system.icache.overall_avg_mshr_miss_latency::total 57790.597136                       # average overall mshr miss latency
system.icache.replacements                       3445                       # number of replacements
system.icache.ReadReq_hits::.cpu.inst         1315265                       # number of ReadReq hits
system.icache.ReadReq_hits::total             1315265                       # number of ReadReq hits
system.icache.ReadReq_misses::.cpu.inst          3701                       # number of ReadReq misses
system.icache.ReadReq_misses::total              3701                       # number of ReadReq misses
system.icache.ReadReq_miss_latency::.cpu.inst    221285000                       # number of ReadReq miss cycles
system.icache.ReadReq_miss_latency::total    221285000                       # number of ReadReq miss cycles
system.icache.ReadReq_accesses::.cpu.inst      1318966                       # number of ReadReq accesses(hits+misses)
system.icache.ReadReq_accesses::total         1318966                       # number of ReadReq accesses(hits+misses)
system.icache.ReadReq_miss_rate::.cpu.inst     0.002806                       # miss rate for ReadReq accesses
system.icache.ReadReq_miss_rate::total       0.002806                       # miss rate for ReadReq accesses
system.icache.ReadReq_avg_miss_latency::.cpu.inst 59790.597136                       # average ReadReq miss latency
system.icache.ReadReq_avg_miss_latency::total 59790.597136                       # average ReadReq miss latency
system.icache.ReadReq_mshr_misses::.cpu.inst         3701                       # number of ReadReq MSHR misses
system.icache.ReadReq_mshr_misses::total         3701                       # number of ReadReq MSHR misses
system.icache.ReadReq_mshr_miss_latency::.cpu.inst    213883000                       # number of ReadReq MSHR miss cycles
system.icache.ReadReq_mshr_miss_latency::total    213883000                       # number of ReadReq MSHR miss cycles
system.icache.ReadReq_mshr_miss_rate::.cpu.inst     0.002806                       # mshr miss rate for ReadReq accesses
system.icache.ReadReq_mshr_miss_rate::total     0.002806                       # mshr miss rate for ReadReq accesses
system.icache.ReadReq_avg_mshr_miss_latency::.cpu.inst 57790.597136                       # average ReadReq mshr miss latency
system.icache.ReadReq_avg_mshr_miss_latency::total 57790.597136                       # average ReadReq mshr miss latency
system.icache.power_state.pwrStateResidencyTicks::UNDEFINED   3775872000                       # Cumulative time (in ticks) in various power states
system.icache.tags.tagsinuse               251.384369                       # Cycle average of tags in use
system.icache.tags.total_refs                  302775                       # Total number of references to valid blocks.
system.icache.tags.sampled_refs                  3445                       # Sample count of references to valid blocks.
system.icache.tags.avg_refs                 87.888244                       # Average number of references to valid blocks.
system.icache.tags.warmup_cycle                 82000                       # Cycle when the warmup percentage was hit.
system.icache.tags.occ_blocks::.cpu.inst   251.384369                       # Average occupied blocks per requestor
system.icache.tags.occ_percent::.cpu.inst     0.981970                       # Average percentage of cache occupancy
system.icache.tags.occ_percent::total        0.981970                       # Average percentage of cache occupancy
system.icache.tags.occ_task_id_blocks::1024          256                       # Occupied blocks per task id
system.icache.tags.age_task_id_blocks_1024::3          256                       # Occupied blocks per task id
system.icache.tags.occ_task_id_percent::1024            1                       # Percentage of cache occupancy per task id
system.icache.tags.tag_accesses               1322667                       # Number of tag accesses
system.icache.tags.data_accesses              1322667                       # Number of data accesses
system.icache.tags.power_state.pwrStateResidencyTicks::UNDEFINED   3775872000                       # Cumulative time (in ticks) in various power states
system.membus.trans_dist::ReadReq                4550                       # Transaction distribution
system.membus.trans_dist::ReadResp               4550                       # Transaction distribution
system.membus.trans_dist::WritebackDirty          477                       # Transaction distribution
system.membus.pkt_count_system.cache_small.mem_side::system.mem_ctrl.port         9577                       # Packet count per connected master and slave (bytes)
system.membus.pkt_count_system.cache_small.mem_side::total         9577                       # Packet count per connected master and slave (bytes)
system.membus.pkt_count::total                   9577                       # Packet count per connected master and slave (bytes)
system.membus.pkt_size_system.cache_small.mem_side::system.mem_ctrl.port       321728                       # Cumulative packet size per connected master and slave (bytes)
system.membus.pkt_size_system.cache_small.mem_side::total       321728                       # Cumulative packet size per connected master and slave (bytes)
system.membus.pkt_size::total                  321728                       # Cumulative packet size per connected master and slave (bytes)
system.membus.reqLayer2.occupancy             6935000                       # Layer occupancy (ticks)
system.membus.reqLayer2.utilization               0.2                       # Layer utilization (%)
system.membus.respLayer1.occupancy           24229500                       # Layer occupancy (ticks)
system.membus.respLayer1.utilization              0.6                       # Layer utilization (%)
system.membus.power_state.pwrStateResidencyTicks::UNDEFINED   3775872000                       # Cumulative time (in ticks) in various power states
system.mem_ctrl.bytes_read::.cpu.inst          166272                       # Number of bytes read from this memory
system.mem_ctrl.bytes_read::.cpu.data          124928                       # Number of bytes read from this memory
system.mem_ctrl.bytes_read::total              291200                       # Number of bytes read from this memory
system.mem_ctrl.bytes_inst_read::.cpu.inst       166272                       # Number of instructions bytes read from this memory
system.mem_ctrl.bytes_inst_read::total         166272                       # Number of instructions bytes read from this memory
system.mem_ctrl.bytes_written::.writebacks        30528                       # Number of bytes written to this memory
system.mem_ctrl.bytes_written::total            30528                       # Number of bytes written to this memory
system.mem_ctrl.num_reads::.cpu.inst             2598                       # Number of read requests responded to by this memory
system.mem_ctrl.num_reads::.cpu.data             1952                       # Number of read requests responded to by this memory
system.mem_ctrl.num_reads::total                 4550                       # Number of read requests responded to by this memory
system.mem_ctrl.num_writes::.writebacks           477                       # Number of write requests responded to by this memory
system.mem_ctrl.num_writes::total                 477                       # Number of write requests responded to by this memory
system.mem_ctrl.bw_read::.cpu.inst           44035391                       # Total read bandwidth from this memory (bytes/s)
system.mem_ctrl.bw_read::.cpu.data           33085867                       # Total read bandwidth from this memory (bytes/s)
system.mem_ctrl.bw_read::total               77121258                       # Total read bandwidth from this memory (bytes/s)
system.mem_ctrl.bw_inst_read::.cpu.inst      44035391                       # Instruction read bandwidth from this memory (bytes/s)
system.mem_ctrl.bw_inst_read::total          44035391                       # Instruction read bandwidth from this memory (bytes/s)
system.mem_ctrl.bw_write::.writebacks         8085020                       # Write bandwidth from this memory (bytes/s)
system.mem_ctrl.bw_write::total               8085020                       # Write bandwidth from this memory (bytes/s)
system.mem_ctrl.bw_total::.writebacks         8085020                       # Total bandwidth to/from this memory (bytes/s)
system.mem_ctrl.bw_total::.cpu.inst          44035391                       # Total bandwidth to/from this memory (bytes/s)
system.mem_ctrl.bw_total::.cpu.data          33085867                       # Total bandwidth to/from this memory (bytes/s)
system.mem_ctrl.bw_total::total              85206278                       # Total bandwidth to/from this memory (bytes/s)
system.mem_ctrl.avgPriority_.writebacks::samples       473.00                       # Average QoS priority value for accepted requests
system.mem_ctrl.avgPriority_.cpu.inst::samples      2598.00                       # Average QoS priority value for accepted requests
system.mem_ctrl.avgPriority_.cpu.data::samples      1943.00                       # Average QoS priority value for accepted requests
system.mem_ctrl.priorityMinLatency       0.000000018750                       # per QoS priority minimum request to response latency (s)
system.mem_ctrl.priorityMaxLatency       0.001220681750                       # per QoS priority maximum request to response latency (s)
system.mem_ctrl.numReadWriteTurnArounds            27                       # Number of turnarounds from READ to WRITE
system.mem_ctrl.numWriteReadTurnArounds            27                       # Number of turnarounds from WRITE to READ
system.mem_ctrl.numStayReadState                10508                       # Number of times bus staying in READ state
system.mem_ctrl.numStayWriteState                 422                       # Number of times bus staying in WRITE state
system.mem_ctrl.readReqs                         4550                       # Number of read requests accepted
system.mem_ctrl.writeReqs                         477                       # Number of write requests accepted
system.mem_ctrl.readBursts                       4550                       # Number of DRAM read bursts, including those serviced by the write queue
system.mem_ctrl.writeBursts                       477                       # Number of DRAM write bursts, including those merged in the write queue
system.mem_ctrl.servicedByWrQ                       9                       # Number of DRAM read bursts serviced by the write queue
system.mem_ctrl.mergedWrBursts                      4                       # Number of DRAM write bursts merged with an existing one
system.mem_ctrl.neitherReadNorWriteReqs             0                       # Number of requests that are neither read nor write
system.mem_ctrl.perBankRdBursts::0                238                       # Per bank write bursts
system.mem_ctrl.perBankRdBursts::1                241                       # Per bank write bursts
system.mem_ctrl.perBankRdBursts::2                423                       # Per bank write bursts
system.mem_ctrl.perBankRdBursts::3                494                       # Per bank write bursts
system.mem_ctrl.perBankRdBursts::4                225                       # Per bank write bursts
system.mem_ctrl.perBankRdBursts::5                238                       # Per bank write bursts
system.mem_ctrl.perBankRdBursts::6                309                       # Per bank write bursts
system.mem_ctrl.perBankRdBursts::7                238                       # Per bank write bursts
system.mem_ctrl.perBankRdBursts::8                285                       # Per bank write bursts
system.mem_ctrl.perBankRdBursts::9                227                       # Per bank write bursts
system.mem_ctrl.perBankRdBursts::10               205                       # Per bank write bursts
system.mem_ctrl.perBankRdBursts::11               314                       # Per bank write bursts
system.mem_ctrl.perBankRdBursts::12               370                       # Per bank write bursts
system.mem_ctrl.perBankRdBursts::13               297                       # Per bank write bursts
system.mem_ctrl.perBankRdBursts::14               265                       # Per bank write bursts
system.mem_ctrl.perBankRdBursts::15               172                       # Per bank write bursts
system.mem_ctrl.perBankWrBursts::0                 16                       # Per bank write bursts
system.mem_ctrl.perBankWrBursts::1                 12                       # Per bank write bursts
system.mem_ctrl.perBankWrBursts::2                123                       # Per bank write bursts
system.mem_ctrl.perBankWrBursts::3                 47                       # Per bank write bursts
system.mem_ctrl.perBankWrBursts::4                 45                       # Per bank write bursts
system.mem_ctrl.perBankWrBursts::5                 38                       # Per bank write bursts
system.mem_ctrl.perBankWrBursts::6                 23                       # Per bank write bursts
system.mem_ctrl.perBankWrBursts::7                  2                       # Per bank write bursts
system.mem_ctrl.perBankWrBursts::8                  0                       # Per bank write bursts
system.mem_ctrl.perBankWrBursts::9                  0                       # Per bank write bursts
system.mem_ctrl.perBankWrBursts::10                 9                       # Per bank write bursts
system.mem_ctrl.perBankWrBursts::11                45                       # Per bank write bursts
system.mem_ctrl.perBankWrBursts::12                31                       # Per bank write bursts
system.mem_ctrl.perBankWrBursts::13                19                       # Per bank write bursts
system.mem_ctrl.perBankWrBursts::14                26                       # Per bank write bursts
system.mem_ctrl.perBankWrBursts::15                13                       # Per bank write bursts
system.mem_ctrl.avgRdQLen                        1.00                       # Average read queue length when enqueuing
system.mem_ctrl.avgWrQLen                       21.60                       # Average write queue length when enqueuing
system.mem_ctrl.totQLat                      35685750                       # Total ticks spent queuing
system.mem_ctrl.totBusLat                    22705000                       # Total ticks spent in databus transfers
system.mem_ctrl.totMemAccLat                120829500                       # Total ticks spent from burst creation until serviced by the DRAM
system.mem_ctrl.avgQLat                       7858.57                       # Average queueing delay per DRAM burst
system.mem_ctrl.avgBusLat                     5000.00                       # Average bus latency per DRAM burst
system.mem_ctrl.avgMemAccLat                 26608.57                       # Average memory access latency per DRAM burst
system.mem_ctrl.numRdRetry                          0                       # Number of times read queue was full causing retry
system.mem_ctrl.numWrRetry                          0                       # Number of times write queue was full causing retry
system.mem_ctrl.readRowHits                      3447                       # Number of row buffer hits during reads
system.mem_ctrl.writeRowHits                      371                       # Number of row buffer hits during writes
system.mem_ctrl.readRowHitRate                  75.91                       # Row buffer hit rate for reads
system.mem_ctrl.writeRowHitRate                 78.44                       # Row buffer hit rate for writes
system.mem_ctrl.readPktSize::0                      0                       # Read request sizes (log2)
system.mem_ctrl.readPktSize::1                      0                       # Read request sizes (log2)
system.mem_ctrl.readPktSize::2                      0                       # Read request sizes (log2)
system.mem_ctrl.readPktSize::3                      0                       # Read request sizes (log2)
system.mem_ctrl.readPktSize::4                      0                       # Read request sizes (log2)
system.mem_ctrl.readPktSize::5                      0                       # Read request sizes (log2)
system.mem_ctrl.readPktSize::6                   4550                       # Read request sizes (log2)
system.mem_ctrl.writePktSize::0                     0                       # Write request sizes (log2)
system.mem_ctrl.writePktSize::1                     0                       # Write request sizes (log2)
system.mem_ctrl.writePktSize::2                     0                       # Write request sizes (log2)
system.mem_ctrl.writePktSize::3                     0                       # Write request sizes (log2)
system.mem_ctrl.writePktSize::4                     0                       # Write request sizes (log2)
system.mem_ctrl.writePktSize::5                     0                       # Write request sizes (log2)
system.mem_ctrl.writePktSize::6                   477                       # Write request sizes (log2)
system.mem_ctrl.rdQLenPdf::0                     4541                       # What read queue length does an incoming req see
system.mem_ctrl.rdQLenPdf::1                        0                       # What read queue length does an incoming req see
system.mem_ctrl.rdQLenPdf::2                        0                       # What read queue length does an incoming req see
system.mem_ctrl.rdQLenPdf::3                        0                       # What read queue length does an incoming req see
system.mem_ctrl.rdQLenPdf::4                        0                       # What read queue length does an incoming req see
system.mem_ctrl.rdQLenPdf::5                        0                       # What read queue length does an incoming req see
system.mem_ctrl.rdQLenPdf::6                        0                       # What read queue length does an incoming req see
system.mem_ctrl.rdQLenPdf::7                        0                       # What read queue length does an incoming req see
system.mem_ctrl.rdQLenPdf::8                        0                       # What read queue length does an incoming req see
system.mem_ctrl.rdQLenPdf::9                        0                       # What read queue length does an incoming req see
system.mem_ctrl.rdQLenPdf::10                       0                       # What read queue length does an incoming req see
system.mem_ctrl.rdQLenPdf::11                       0                       # What read queue length does an incoming req see
system.mem_ctrl.rdQLenPdf::12                       0                       # What read queue length does an incoming req see
system.mem_ctrl.rdQLenPdf::13                       0                       # What read queue length does an incoming req see
system.mem_ctrl.rdQLenPdf::14                       0                       # What read queue length does an incoming req see
system.mem_ctrl.rdQLenPdf::15                       0                       # What read queue length does an incoming req see
system.mem_ctrl.rdQLenPdf::16                       0                       # What read queue length does an incoming req see
system.mem_ctrl.rdQLenPdf::17                       0                       # What read queue length does an incoming req see
system.mem_ctrl.rdQLenPdf::18                       0                       # What read queue length does an incoming req see
system.mem_ctrl.rdQLenPdf::19                       0                       # What read queue length does an incoming req see
system.mem_ctrl.rdQLenPdf::20                       0                       # What read queue length does an incoming req see
system.mem_ctrl.rdQLenPdf::21                       0                       # What read queue length does an incoming req see
system.mem_ctrl.rdQLenPdf::22                       0                       # What read queue length does an incoming req see
system.mem_ctrl.rdQLenPdf::23                       0                       # What read queue length does an incoming req see
system.mem_ctrl.rdQLenPdf::24                       0                       # What read queue length does an incoming req see
system.mem_ctrl.rdQLenPdf::25                       0                       # What read queue length does an incoming req see
system.mem_ctrl.rdQLenPdf::26                       0                       # What read queue length does an incoming req see
system.mem_ctrl.rdQLenPdf::27                       0                       # What read queue length does an incoming req see
system.mem_ctrl.rdQLenPdf::28                       0                       # What read queue length does an incoming req see
system.mem_ctrl.rdQLenPdf::29                       0                       # What read queue length does an incoming req see
system.mem_ctrl.rdQLenPdf::30                       0                       # What read queue length does an incoming req see
system.mem_ctrl.rdQLenPdf::31                       0                       # What read queue length does an incoming req see
system.mem_ctrl.wrQLenPdf::0                        1                       # What write queue length does an incoming req see
system.mem_ctrl.wrQLenPdf::1                        1                       # What write queue length does an incoming req see
system.mem_ctrl.wrQLenPdf::2                        1                       # What write queue length does an incoming req see
system.mem_ctrl.wrQLenPdf::3                        1                       # What write queue length does an incoming req see
system.mem_ctrl.wrQLenPdf::4                        1                       # What write queue length does an incoming req see
system.mem_ctrl.wrQLenPdf::5                        1                       # What write queue length does an incoming req see
system.mem_ctrl.wrQLenPdf::6                        1                       # What write queue length does an incoming req see
system.mem_ctrl.wrQLenPdf::7                        1                       # What write queue length does an incoming req see
system.mem_ctrl.wrQLenPdf::8                        1                       # What write queue length does an incoming req see
system.mem_ctrl.wrQLenPdf::9                        1                       # What write queue length does an incoming req see
system.mem_ctrl.wrQLenPdf::10                       1                       # What write queue length does an incoming req see
system.mem_ctrl.wrQLenPdf::11                       1                       # What write queue length does an incoming req see
system.mem_ctrl.wrQLenPdf::12                       1                       # What write queue length does an incoming req see
system.mem_ctrl.wrQLenPdf::13                       1                       # What write queue length does an incoming req see
system.mem_ctrl.wrQLenPdf::14                       1                       # What write queue length does an incoming req see
system.mem_ctrl.wrQLenPdf::15                       9                       # What write queue length does an incoming req see
system.mem_ctrl.wrQLenPdf::16                      10                       # What write queue length does an incoming req see
system.mem_ctrl.wrQLenPdf::17                      28                       # What write queue length does an incoming req see
system.mem_ctrl.wrQLenPdf::18                      28                       # What write queue length does an incoming req see
system.mem_ctrl.wrQLenPdf::19                      28                       # What write queue length does an incoming req see
system.mem_ctrl.wrQLenPdf::20                      28                       # What write queue length does an incoming req see
system.mem_ctrl.wrQLenPdf::21                      28                       # What write queue length does an incoming req see
system.mem_ctrl.wrQLenPdf::22                      28                       # What write queue length does an incoming req see
system.mem_ctrl.wrQLenPdf::23                      28                       # What write queue length does an incoming req see
system.mem_ctrl.wrQLenPdf::24                      27                       # What write queue length does an incoming req see
system.mem_ctrl.wrQLenPdf::25                      27                       # What write queue length does an incoming req see
system.mem_ctrl.wrQLenPdf::26                      27                       # What write queue length does an incoming req see
system.mem_ctrl.wrQLenPdf::27                      27                       # What write queue length does an incoming req see
system.mem_ctrl.wrQLenPdf::28                      27                       # What write queue length does an incoming req see
system.mem_ctrl.wrQLenPdf::29                      27                       # What write queue length does an incoming req see
system.mem_ctrl.wrQLenPdf::30                      27                       # What write queue length does an incoming req see
system.mem_ctrl.wrQLenPdf::31                      27                       # What write queue length does an incoming req see
system.mem_ctrl.wrQLenPdf::32                      27                       # What write queue length does an incoming req see
system.mem_ctrl.wrQLenPdf::33                       0                       # What write queue length does an incoming req see
system.mem_ctrl.wrQLenPdf::34                       0                       # What write queue length does an incoming req see
system.mem_ctrl.wrQLenPdf::35                       0                       # What write queue length does an incoming req see
system.mem_ctrl.wrQLenPdf::36                       0                       # What write queue length does an incoming req see
system.mem_ctrl.wrQLenPdf::37                       0                       # What write queue length does an incoming req see
system.mem_ctrl.wrQLenPdf::38                       0                       # What write queue length does an incoming req see
system.mem_ctrl.wrQLenPdf::39                       0                       # What write queue length does an incoming req see
system.mem_ctrl.wrQLenPdf::40                       0                       # What write queue length does an incoming req see
system.mem_ctrl.wrQLenPdf::41                       0                       # What write queue length does an incoming req see
system.mem_ctrl.wrQLenPdf::42                       0                       # What write queue length does an incoming req see
system.mem_ctrl.wrQLenPdf::43                       0                       # What write queue length does an incoming req see
system.mem_ctrl.wrQLenPdf::44                       0                       # What write queue length does an incoming req see
system.mem_ctrl.wrQLenPdf::45                       0                       # What write queue length does an incoming req see
system.mem_ctrl.wrQLenPdf::46                       0                       # What write queue length does an incoming req see
system.mem_ctrl.wrQLenPdf::47                       0                       # What write queue length does an incoming req see
system.mem_ctrl.wrQLenPdf::48                       0                       # What write queue length does an incoming req see
system.mem_ctrl.wrQLenPdf::49                       0                       # What write queue length does an incoming req see
system.mem_ctrl.wrQLenPdf::50                       0                       # What write queue length does an incoming req see
system.mem_ctrl.wrQLenPdf::51                       0                       # What write queue length does an incoming req see
system.mem_ctrl.wrQLenPdf::52                       0                       # What write queue length does an incoming req see
system.mem_ctrl.wrQLenPdf::53                       0                       # What write queue length does an incoming req see
system.mem_ctrl.wrQLenPdf::54                       0                       # What write queue length does an incoming req see
system.mem_ctrl.wrQLenPdf::55                       0                       # What write queue length does an incoming req see
system.mem_ctrl.wrQLenPdf::56                       0                       # What write queue length does an incoming req see
system.mem_ctrl.wrQLenPdf::57                       0                       # What write queue length does an incoming req see
system.mem_ctrl.wrQLenPdf::58                       0                       # What write queue length does an incoming req see
system.mem_ctrl.wrQLenPdf::59                       0                       # What write queue length does an incoming req see
system.mem_ctrl.wrQLenPdf::60                       0                       # What write queue length does an incoming req see
system.mem_ctrl.wrQLenPdf::61                       0                       # What write queue length does an incoming req see
system.mem_ctrl.wrQLenPdf::62                       0                       # What write queue length does an incoming req see
system.mem_ctrl.wrQLenPdf::63                       0                       # What write queue length does an incoming req see
system.mem_ctrl.bytesPerActivate::samples         1172                       # Bytes accessed per row activation
system.mem_ctrl.bytesPerActivate::mean     272.491468                       # Bytes accessed per row activation
system.mem_ctrl.bytesPerActivate::gmean    180.316827                       # Bytes accessed per row activation
system.mem_ctrl.bytesPerActivate::stdev    275.354964                       # Bytes accessed per row activation
system.mem_ctrl.bytesPerActivate::0-127           312     26.62%     26.62% # Bytes accessed per row activation
system.mem_ctrl.bytesPerActivate::128-255          443     37.80%     64.42% # Bytes accessed per row activation
system.mem_ctrl.bytesPerActivate::256-383          148     12.63%     77.05% # Bytes accessed per row activation
system.mem_ctrl.bytesPerActivate::384-511           64      5.46%     82.51% # Bytes accessed per row activation
system.mem_ctrl.bytesPerActivate::512-639           45      3.84%     86.35% # Bytes accessed per row activation
system.mem_ctrl.bytesPerActivate::640-767           39      3.33%     89.68% # Bytes accessed per row activation
system.mem_ctrl.bytesPerActivate::768-895           28      2.39%     92.06% # Bytes accessed per row activation
system.mem_ctrl.bytesPerActivate::896-1023           20      1.71%     93.77% # Bytes accessed per row activation
system.mem_ctrl.bytesPerActivate::1024-1151           73      6.23%    100.00% # Bytes accessed per row activation
system.mem_ctrl.bytesPerActivate::total          1172                       # Bytes accessed per row activation
system.mem_ctrl.rdPerTurnAround::samples           27                       # Reads before turning the bus around for writes
system.mem_ctrl.rdPerTurnAround::mean      167.481481                       # Reads before turning the bus around for writes
system.mem_ctrl.rdPerTurnAround::gmean      71.181934                       # Reads before turning the bus around for writes
system.mem_ctrl.rdPerTurnAround::stdev     322.359018                       # Reads before turning the bus around for writes
system.mem_ctrl.rdPerTurnAround::0-63              15     55.56%     55.56% # Reads before turning the bus around for writes
system.mem_ctrl.rdPerTurnAround::64-127             6     22.22%     77.78% # Reads before turning the bus around for writes
system.mem_ctrl.rdPerTurnAround::128-191            2      7.41%     85.19% # Reads before turning the bus around for writes
system.mem_ctrl.rdPerTurnAround::192-255            1      3.70%     88.89% # Reads before turning the bus around for writes
system.mem_ctrl.rdPerTurnAround::576-639            1      3.70%     92.59% # Reads before turning the bus around for writes
system.mem_ctrl.rdPerTurnAround::832-895            1      3.70%     96.30% # Reads before turning the bus around for writes
system.mem_ctrl.rdPerTurnAround::1472-1535            1      3.70%    100.00% # Reads before turning the bus around for writes
system.mem_ctrl.rdPerTurnAround::total             27                       # Reads before turning the bus around for writes
system.mem_ctrl.wrPerTurnAround::samples           27                       # Writes before turning the bus around for reads
system.mem_ctrl.wrPerTurnAround::mean       16.629630                       # Writes before turning the bus around for reads
system.mem_ctrl.wrPerTurnAround::gmean      16.605480                       # Writes before turning the bus around for reads
system.mem_ctrl.wrPerTurnAround::stdev       0.926040                       # Writes before turning the bus around for reads
system.mem_ctrl.wrPerTurnAround::16                18     66.67%     66.67% # Writes before turning the bus around for reads
system.mem_ctrl.wrPerTurnAround::17                 1      3.70%     70.37% # Writes before turning the bus around for reads
system.mem_ctrl.wrPerTurnAround::18                 8     29.63%    100.00% # Writes before turning the bus around for reads
system.mem_ctrl.wrPerTurnAround::total             27                       # Writes before turning the bus around for reads
system.mem_ctrl.bytesReadDRAM                  290624                       # Total number of bytes read from DRAM
system.mem_ctrl.bytesReadWrQ                      576                       # Total number of bytes read from write queue
system.mem_ctrl.bytesWritten                    28736                       # Total number of bytes written to DRAM
system.mem_ctrl.bytesReadSys                   291200                       # Total read bytes from the system interface side
system.mem_ctrl.bytesWrittenSys                 30528                       # Total written bytes from the system interface side
system.mem_ctrl.avgRdBW                         76.97                       # Average DRAM read bandwidth in MiByte/s
system.mem_ctrl.avgWrBW                          7.61                       # Average achieved write bandwidth in MiByte/s
system.mem_ctrl.avgRdBWSys                      77.12                       # Average system read bandwidth in MiByte/s
system.mem_ctrl.avgWrBWSys                       8.09                       # Average system write bandwidth in MiByte/s
system.mem_ctrl.peakBW                       12800.00                       # Theoretical peak bandwidth in MiByte/s
system.mem_ctrl.busUtil                          0.66                       # Data bus utilization in percentage
system.mem_ctrl.busUtilRead                      0.60                       # Data bus utilization in percentage for reads
system.mem_ctrl.busUtilWrite                     0.06                       # Data bus utilization in percentage for writes
system.mem_ctrl.totGap                     3730464000                       # Total gap between requests
system.mem_ctrl.avgGap                      742085.54                       # Average gap between requests
system.mem_ctrl.masterReadBytes::.cpu.inst       166272                       # Per-master bytes read from memory
system.mem_ctrl.masterReadBytes::.cpu.data       124352                       # Per-master bytes read from memory
system.mem_ctrl.masterWriteBytes::.writebacks        28736                       # Per-master bytes write to memory
system.mem_ctrl.masterReadRate::.cpu.inst 44035391.030204415321                       # Per-master bytes read from memory rate (Bytes/sec)
system.mem_ctrl.masterReadRate::.cpu.data 32933319.773551646620                       # Per-master bytes read from memory rate (Bytes/sec)
system.mem_ctrl.masterWriteRate::.writebacks 7610427.472117698751                       # Per-master bytes write to memory rate (Bytes/sec)
system.mem_ctrl.masterReadAccesses::.cpu.inst         2598                       # Per-master read serviced memory accesses
system.mem_ctrl.masterReadAccesses::.cpu.data         1952                       # Per-master read serviced memory accesses
system.mem_ctrl.masterWriteAccesses::.writebacks          477                       # Per-master write serviced memory accesses
system.mem_ctrl.masterReadTotalLat::.cpu.inst     71382500                       # Per-master read total memory access latency
system.mem_ctrl.masterReadTotalLat::.cpu.data     49447000                       # Per-master read total memory access latency
system.mem_ctrl.masterWriteTotalLat::.writebacks  26795591750                       # Per-master write total memory access latency
system.mem_ctrl.masterReadAvgLat::.cpu.inst     27475.94                       # Per-master read average memory access latency
system.mem_ctrl.masterReadAvgLat::.cpu.data     25331.45                       # Per-master read average memory access latency
system.mem_ctrl.masterWriteAvgLat::.writebacks  56175244.76                       # Per-master write average memory access latency
system.mem_ctrl.pageHitRate                     76.15                       # Row buffer hit rate, read and write combined
system.mem_ctrl.rank1.actEnergy               3755640                       # Energy for activate commands per rank (pJ)
system.mem_ctrl.rank1.preEnergy               1996170                       # Energy for precharge commands per rank (pJ)
system.mem_ctrl.rank1.readEnergy             15243900                       # Energy for read commands per rank (pJ)
system.mem_ctrl.rank1.writeEnergy              746460                       # Energy for write commands per rank (pJ)
system.mem_ctrl.rank1.refreshEnergy      297485760.000000                       # Energy for refresh commands per rank (pJ)
system.mem_ctrl.rank1.actBackEnergy         432204780                       # Energy for active background per rank (pJ)
system.mem_ctrl.rank1.preBackEnergy        1085973120                       # Energy for precharge background per rank (pJ)
system.mem_ctrl.rank1.actPowerDownEnergy            0                       # Energy for active power-down per rank (pJ)
system.mem_ctrl.rank1.prePowerDownEnergy            0                       # Energy for precharge power-down per rank (pJ)
system.mem_ctrl.rank1.selfRefreshEnergy             0                       # Energy for self refresh per rank (pJ)
system.mem_ctrl.rank1.totalEnergy          1837405830                       # Total energy per rank (pJ)
system.mem_ctrl.rank1.averagePower         486.617616                       # Core power per rank (mW)
system.mem_ctrl.rank1.totalIdleTime                 0                       # Total Idle time Per DRAM Rank
system.mem_ctrl.rank1.memoryStateTime::IDLE   2818759000                       # Time in different power states
system.mem_ctrl.rank1.memoryStateTime::REF    125840000                       # Time in different power states
system.mem_ctrl.rank1.memoryStateTime::SREF            0                       # Time in different power states
system.mem_ctrl.rank1.memoryStateTime::PRE_PDN            0                       # Time in different power states
system.mem_ctrl.rank1.memoryStateTime::ACT    831273000                       # Time in different power states
system.mem_ctrl.rank1.memoryStateTime::ACT_PDN            0                       # Time in different power states
system.mem_ctrl.rank0.actEnergy               4612440                       # Energy for activate commands per rank (pJ)
system.mem_ctrl.rank0.preEnergy               2451570                       # Energy for precharge commands per rank (pJ)
system.mem_ctrl.rank0.readEnergy             17178840                       # Energy for read commands per rank (pJ)
system.mem_ctrl.rank0.writeEnergy             1597320                       # Energy for write commands per rank (pJ)
system.mem_ctrl.rank0.refreshEnergy      297485760.000000                       # Energy for refresh commands per rank (pJ)
system.mem_ctrl.rank0.actBackEnergy         463875690                       # Energy for active background per rank (pJ)
system.mem_ctrl.rank0.preBackEnergy        1059302880                       # Energy for precharge background per rank (pJ)
system.mem_ctrl.rank0.actPowerDownEnergy            0                       # Energy for active power-down per rank (pJ)
system.mem_ctrl.rank0.prePowerDownEnergy            0                       # Energy for precharge power-down per rank (pJ)
system.mem_ctrl.rank0.selfRefreshEnergy             0                       # Energy for self refresh per rank (pJ)
system.mem_ctrl.rank0.totalEnergy          1846504500                       # Total energy per rank (pJ)
system.mem_ctrl.rank0.averagePower         489.027303                       # Core power per rank (mW)
system.mem_ctrl.rank0.totalIdleTime                 0                       # Total Idle time Per DRAM Rank
system.mem_ctrl.rank0.memoryStateTime::IDLE   2748427000                       # Time in different power states
system.mem_ctrl.rank0.memoryStateTime::REF    125840000                       # Time in different power states
system.mem_ctrl.rank0.memoryStateTime::SREF            0                       # Time in different power states
system.mem_ctrl.rank0.memoryStateTime::PRE_PDN            0                       # Time in different power states
system.mem_ctrl.rank0.memoryStateTime::ACT    901605000                       # Time in different power states
system.mem_ctrl.rank0.memoryStateTime::ACT_PDN            0                       # Time in different power states
system.mem_ctrl.power_state.pwrStateResidencyTicks::UNDEFINED   3775872000                       # Cumulative time (in ticks) in various power states
system.cache_medium.blocked_cycles::no_mshrs            0                       # number of cycles access was blocked
system.cache_medium.blocked_cycles::no_targets            0                       # number of cycles access was blocked
system.cache_medium.blocked::no_mshrs               0                       # number of cycles access was blocked
system.cache_medium.blocked::no_targets             0                       # number of cycles access was blocked
system.cache_medium.avg_blocked_cycles::no_mshrs          nan                       # average number of cycles each access was blocked
system.cache_medium.avg_blocked_cycles::no_targets          nan                       # average number of cycles each access was blocked
system.cache_medium.replacements                    0                       # number of replacements
system.cache_medium.power_state.pwrStateResidencyTicks::UNDEFINED   3775872000                       # Cumulative time (in ticks) in various power states
system.cache_medium.tags.tagsinuse                  0                       # Cycle average of tags in use
system.cache_medium.tags.total_refs                 0                       # Total number of references to valid blocks.
system.cache_medium.tags.sampled_refs               0                       # Sample count of references to valid blocks.
system.cache_medium.tags.avg_refs                 nan                       # Average number of references to valid blocks.
system.cache_medium.tags.warmup_cycle               0                       # Cycle when the warmup percentage was hit.
system.cache_medium.tags.tag_accesses               0                       # Number of tag accesses
system.cache_medium.tags.data_accesses              0                       # Number of data accesses
system.cache_medium.tags.power_state.pwrStateResidencyTicks::UNDEFINED   3775872000                       # Cumulative time (in ticks) in various power states
system.clk_domain.clock                          1000                       # Clock period in ticks
system.clk_domain.voltage_domain.voltage            1                       # Voltage in Volts
system.dcache.demand_hits::.cpu.data           345727                       # number of demand (read+write) hits
system.dcache.demand_hits::total               345727                       # number of demand (read+write) hits
system.dcache.overall_hits::.cpu.data          345783                       # number of overall hits
system.dcache.overall_hits::total              345783                       # number of overall hits
system.dcache.demand_misses::.cpu.data           6648                       # number of demand (read+write) misses
system.dcache.demand_misses::total               6648                       # number of demand (read+write) misses
system.dcache.overall_misses::.cpu.data          6665                       # number of overall misses
system.dcache.overall_misses::total              6665                       # number of overall misses
system.dcache.demand_miss_latency::.cpu.data    224028000                       # number of demand (read+write) miss cycles
system.dcache.demand_miss_latency::total    224028000                       # number of demand (read+write) miss cycles
system.dcache.overall_miss_latency::.cpu.data    225001000                       # number of overall miss cycles
system.dcache.overall_miss_latency::total    225001000                       # number of overall miss cycles
system.dcache.demand_accesses::.cpu.data       352375                       # number of demand (read+write) accesses
system.dcache.demand_accesses::total           352375                       # number of demand (read+write) accesses
system.dcache.overall_accesses::.cpu.data       352448                       # number of overall (read+write) accesses
system.dcache.overall_accesses::total          352448                       # number of overall (read+write) accesses
system.dcache.demand_miss_rate::.cpu.data     0.018866                       # miss rate for demand accesses
system.dcache.demand_miss_rate::total        0.018866                       # miss rate for demand accesses
system.dcache.overall_miss_rate::.cpu.data     0.018911                       # miss rate for overall accesses
system.dcache.overall_miss_rate::total       0.018911                       # miss rate for overall accesses
system.dcache.demand_avg_miss_latency::.cpu.data 33698.555957                       # average overall miss latency
system.dcache.demand_avg_miss_latency::total 33698.555957                       # average overall miss latency
system.dcache.overall_avg_miss_latency::.cpu.data 33758.589647                       # average overall miss latency
system.dcache.overall_avg_miss_latency::total 33758.589647                       # average overall miss latency
system.dcache.blocked_cycles::no_mshrs              0                       # number of cycles access was blocked
system.dcache.blocked_cycles::no_targets            0                       # number of cycles access was blocked
system.dcache.blocked::no_mshrs                     0                       # number of cycles access was blocked
system.dcache.blocked::no_targets                   0                       # number of cycles access was blocked
system.dcache.avg_blocked_cycles::no_mshrs          nan                       # average number of cycles each access was blocked
system.dcache.avg_blocked_cycles::no_targets          nan                       # average number of cycles each access was blocked
system.dcache.writebacks::.writebacks            3521                       # number of writebacks
system.dcache.writebacks::total                  3521                       # number of writebacks
system.dcache.demand_mshr_misses::.cpu.data         6648                       # number of demand (read+write) MSHR misses
system.dcache.demand_mshr_misses::total          6648                       # number of demand (read+write) MSHR misses
system.dcache.overall_mshr_misses::.cpu.data         6665                       # number of overall MSHR misses
system.dcache.overall_mshr_misses::total         6665                       # number of overall MSHR misses
system.dcache.demand_mshr_miss_latency::.cpu.data    210734000                       # number of demand (read+write) MSHR miss cycles
[...]
system.dcache.tags.age_task_id_blocks_1024::2          108                       # Occupied blocks per task id
system.dcache.tags.age_task_id_blocks_1024::3           15                       # Occupied blocks per task id
system.dcache.tags.occ_task_id_percent::1024            1                       # Percentage of cache occupancy per task id
system.dcache.tags.tag_accesses               2817347                       # Number of tag accesses
system.dcache.tags.data_accesses              2817347                       # Number of data accesses
system.dcache.tags.power_state.pwrStateResidencyTicks::UNDEFINED  30306597000                       # Cumulative time (in ticks) in various power states
system.cache_large.blocked_cycles::no_mshrs            0                       # number of cycles access was blocked
system.cache_large.blocked_cycles::no_targets            0                       # number of cycles access was blocked
system.cache_large.blocked::no_mshrs                0                       # number of cycles access was blocked
system.cache_large.blocked::no_targets              0                       # number of cycles access was blocked
system.cache_large.avg_blocked_cycles::no_mshrs          nan                       # average number of cycles each access was blocked
system.cache_large.avg_blocked_cycles::no_targets          nan                       # average number of cycles each access was blocked
system.cache_large.replacements                     0                       # number of replacements
system.cache_large.power_state.pwrStateResidencyTicks::UNDEFINED  30306597000                       # Cumulative time (in ticks) in various power states
system.cache_large.tags.tagsinuse                   0                       # Cycle average of tags in use
system.cache_large.tags.total_refs                  0                       # Total number of references to valid blocks.
system.cache_large.tags.sampled_refs                0                       # Sample count of references to valid blocks.
system.cache_large.tags.avg_refs                  nan                       # Average number of references to valid blocks.
system.cache_large.tags.warmup_cycle                0                       # Cycle when the warmup percentage was hit.
system.cache_large.tags.tag_accesses                0                       # Number of tag accesses
system.cache_large.tags.data_accesses               0                       # Number of data accesses
system.cache_large.tags.power_state.pwrStateResidencyTicks::UNDEFINED  30306597000                       # Cumulative time (in ticks) in various power states
system.l2cache.demand_hits::.cpu.inst           28580                       # number of demand (read+write) hits
system.l2cache.demand_hits::.cpu.data           30396                       # number of demand (read+write) hits
system.l2cache.demand_hits::total               58976                       # number of demand (read+write) hits
system.l2cache.overall_hits::.cpu.inst          28580                       # number of overall hits
system.l2cache.overall_hits::.cpu.data          30396                       # number of overall hits
system.l2cache.overall_hits::total              58976                       # number of overall hits
system.l2cache.demand_misses::.cpu.inst         94189                       # number of demand (read+write) misses
system.l2cache.demand_misses::.cpu.data         29879                       # number of demand (read+write) misses
system.l2cache.demand_misses::total            124068                       # number of demand (read+write) misses
system.l2cache.overall_misses::.cpu.inst        94189                       # number of overall misses
system.l2cache.overall_misses::.cpu.data        29879                       # number of overall misses
system.l2cache.overall_misses::total           124068                       # number of overall misses
system.l2cache.demand_miss_latency::.cpu.inst   3876930000                       # number of demand (read+write) miss cycles
system.l2cache.demand_miss_latency::.cpu.data    996877000                       # number of demand (read+write) miss cycles
system.l2cache.demand_miss_latency::total   4873807000                       # number of demand (read+write) miss cycles
system.l2cache.overall_miss_latency::.cpu.inst   3876930000                       # number of overall miss cycles
system.l2cache.overall_miss_latency::.cpu.data    996877000                       # number of overall miss cycles
system.l2cache.overall_miss_latency::total   4873807000                       # number of overall miss cycles
system.l2cache.demand_accesses::.cpu.inst       122769                       # number of demand (read+write) accesses
system.l2cache.demand_accesses::.cpu.data        60275                       # number of demand (read+write) accesses
system.l2cache.demand_accesses::total          183044                       # number of demand (read+write) accesses
system.l2cache.overall_accesses::.cpu.inst       122769                       # number of overall (read+write) accesses
system.l2cache.overall_accesses::.cpu.data        60275                       # number of overall (read+write) accesses
system.l2cache.overall_accesses::total         183044                       # number of overall (read+write) accesses
system.l2cache.demand_miss_rate::.cpu.inst     0.767205                       # miss rate for demand accesses
system.l2cache.demand_miss_rate::.cpu.data     0.495711                       # miss rate for demand accesses
system.l2cache.demand_miss_rate::total       0.677804                       # miss rate for demand accesses
system.l2cache.overall_miss_rate::.cpu.inst     0.767205                       # miss rate for overall accesses
system.l2cache.overall_miss_rate::.cpu.data     0.495711                       # miss rate for overall accesses
system.l2cache.overall_miss_rate::total      0.677804                       # miss rate for overall accesses
system.l2cache.demand_avg_miss_latency::.cpu.inst 41161.175933                       # average overall miss latency
system.l2cache.demand_avg_miss_latency::.cpu.data 33363.800663                       # average overall miss latency
system.l2cache.demand_avg_miss_latency::total 39283.352678                       # average overall miss latency
system.l2cache.overall_avg_miss_latency::.cpu.inst 41161.175933                       # average overall miss latency
system.l2cache.overall_avg_miss_latency::.cpu.data 33363.800663                       # average overall miss latency
system.l2cache.overall_avg_miss_latency::total 39283.352678                       # average overall miss latency
system.l2cache.blocked_cycles::no_mshrs             0                       # number of cycles access was blocked
system.l2cache.blocked_cycles::no_targets            0                       # number of cycles access was blocked
system.l2cache.blocked::no_mshrs                    0                       # number of cycles access was blocked
system.l2cache.blocked::no_targets                  0                       # number of cycles access was blocked
system.l2cache.avg_blocked_cycles::no_mshrs          nan                       # average number of cycles each access was blocked
system.l2cache.avg_blocked_cycles::no_targets          nan                       # average number of cycles each access was blocked
system.l2cache.writebacks::.writebacks          21932                       # number of writebacks
system.l2cache.writebacks::total                21932                       # number of writebacks
system.l2cache.demand_mshr_misses::.cpu.inst        94189                       # number of demand (read+write) MSHR misses
system.l2cache.demand_mshr_misses::.cpu.data        29879                       # number of demand (read+write) MSHR misses
system.l2cache.demand_mshr_misses::total       124068                       # number of demand (read+write) MSHR misses
system.l2cache.overall_mshr_misses::.cpu.inst        94189                       # number of overall MSHR misses
system.l2cache.overall_mshr_misses::.cpu.data        29879                       # number of overall MSHR misses
system.l2cache.overall_mshr_misses::total       124068                       # number of overall MSHR misses
system.l2cache.demand_mshr_miss_latency::.cpu.inst   3688552000                       # number of demand (read+write) MSHR miss cycles
system.l2cache.demand_mshr_miss_latency::.cpu.data    937119000                       # number of demand (read+write) MSHR miss cycles
system.l2cache.demand_mshr_miss_latency::total   4625671000                       # number of demand (read+write) MSHR miss cycles
system.l2cache.overall_mshr_miss_latency::.cpu.inst   3688552000                       # number of overall MSHR miss cycles
system.l2cache.overall_mshr_miss_latency::.cpu.data    937119000                       # number of overall MSHR miss cycles
system.l2cache.overall_mshr_miss_latency::total   4625671000                       # number of overall MSHR miss cycles
system.l2cache.demand_mshr_miss_rate::.cpu.inst     0.767205                       # mshr miss rate for demand accesses
system.l2cache.demand_mshr_miss_rate::.cpu.data     0.495711                       # mshr miss rate for demand accesses
system.l2cache.demand_mshr_miss_rate::total     0.677804                       # mshr miss rate for demand accesses
system.l2cache.overall_mshr_miss_rate::.cpu.inst     0.767205                       # mshr miss rate for overall accesses
system.l2cache.overall_mshr_miss_rate::.cpu.data     0.495711                       # mshr miss rate for overall accesses
system.l2cache.overall_mshr_miss_rate::total     0.677804                       # mshr miss rate for overall accesses
system.l2cache.demand_avg_mshr_miss_latency::.cpu.inst 39161.175933                       # average overall mshr miss latency
system.l2cache.demand_avg_mshr_miss_latency::.cpu.data 31363.800663                       # average overall mshr miss latency
system.l2cache.demand_avg_mshr_miss_latency::total 37283.352678                       # average overall mshr miss latency
system.l2cache.overall_avg_mshr_miss_latency::.cpu.inst 39161.175933                       # average overall mshr miss latency
system.l2cache.overall_avg_mshr_miss_latency::.cpu.data 31363.800663                       # average overall mshr miss latency
system.l2cache.overall_avg_mshr_miss_latency::total 37283.352678                       # average overall mshr miss latency
system.l2cache.replacements                    142419                       # number of replacements
system.l2cache.ReadReq_hits::.cpu.inst          28580                       # number of ReadReq hits
system.l2cache.ReadReq_hits::.cpu.data          30396                       # number of ReadReq hits
system.l2cache.ReadReq_hits::total              58976                       # number of ReadReq hits
system.l2cache.ReadReq_misses::.cpu.inst        94189                       # number of ReadReq misses
system.l2cache.ReadReq_misses::.cpu.data        29879                       # number of ReadReq misses
system.l2cache.ReadReq_misses::total           124068                       # number of ReadReq misses
system.l2cache.ReadReq_miss_latency::.cpu.inst   3876930000                       # number of ReadReq miss cycles
system.l2cache.ReadReq_miss_latency::.cpu.data    996877000                       # number of ReadReq miss cycles
system.l2cache.ReadReq_miss_latency::total   4873807000                       # number of ReadReq miss cycles
system.l2cache.ReadReq_accesses::.cpu.inst       122769                       # number of ReadReq accesses(hits+misses)
system.l2cache.ReadReq_accesses::.cpu.data        60275                       # number of ReadReq accesses(hits+misses)
system.l2cache.ReadReq_accesses::total         183044                       # number of ReadReq accesses(hits+misses)
system.l2cache.ReadReq_miss_rate::.cpu.inst     0.767205                       # miss rate for ReadReq accesses
system.l2cache.ReadReq_miss_rate::.cpu.data     0.495711                       # miss rate for ReadReq accesses
system.l2cache.ReadReq_miss_rate::total      0.677804                       # miss rate for ReadReq accesses
system.l2cache.ReadReq_avg_miss_latency::.cpu.inst 41161.175933                       # average ReadReq miss latency
system.l2cache.ReadReq_avg_miss_latency::.cpu.data 33363.800663                       # average ReadReq miss latency
system.l2cache.ReadReq_avg_miss_latency::total 39283.352678                       # average ReadReq miss latency
system.l2cache.ReadReq_mshr_misses::.cpu.inst        94189                       # number of ReadReq MSHR misses
system.l2cache.ReadReq_mshr_misses::.cpu.data        29879                       # number of ReadReq MSHR misses
system.l2cache.ReadReq_mshr_misses::total       124068                       # number of ReadReq MSHR misses
system.l2cache.ReadReq_mshr_miss_latency::.cpu.inst   3688552000                       # number of ReadReq MSHR miss cycles
system.l2cache.ReadReq_mshr_miss_latency::.cpu.data    937119000                       # number of ReadReq MSHR miss cycles
system.l2cache.ReadReq_mshr_miss_latency::total   4625671000                       # number of ReadReq MSHR miss cycles
system.l2cache.ReadReq_mshr_miss_rate::.cpu.inst     0.767205                       # mshr miss rate for ReadReq accesses
system.l2cache.ReadReq_mshr_miss_rate::.cpu.data     0.495711                       # mshr miss rate for ReadReq accesses
system.l2cache.ReadReq_mshr_miss_rate::total     0.677804                       # mshr miss rate for ReadReq accesses
system.l2cache.ReadReq_avg_mshr_miss_latency::.cpu.inst 39161.175933                       # average ReadReq mshr miss latency
system.l2cache.ReadReq_avg_mshr_miss_latency::.cpu.data 31363.800663                       # average ReadReq mshr miss latency
system.l2cache.ReadReq_avg_mshr_miss_latency::total 37283.352678                       # average ReadReq mshr miss latency
system.l2cache.WritebackDirty_hits::.writebacks        28770                       # number of WritebackDirty hits
system.l2cache.WritebackDirty_hits::total        28770                       # number of WritebackDirty hits
system.l2cache.WritebackDirty_accesses::.writebacks        28770                       # number of WritebackDirty accesses(hits+misses)
system.l2cache.WritebackDirty_accesses::total        28770                       # number of WritebackDirty accesses(hits+misses)
system.l2cache.power_state.pwrStateResidencyTicks::UNDEFINED  30306597000                       # Cumulative time (in ticks) in various power states
system.l2cache.tags.tagsinuse              510.381293                       # Cycle average of tags in use
system.l2cache.tags.total_refs                 211814                       # Total number of references to valid blocks.
system.l2cache.tags.sampled_refs               142931                       # Sample count of references to valid blocks.
system.l2cache.tags.avg_refs                 1.481932                       # Average number of references to valid blocks.
system.l2cache.tags.warmup_cycle                78000                       # Cycle when the warmup percentage was hit.
system.l2cache.tags.occ_blocks::.writebacks    72.871821                       # Average occupied blocks per requestor
system.l2cache.tags.occ_blocks::.cpu.inst   304.692612                       # Average occupied blocks per requestor
system.l2cache.tags.occ_blocks::.cpu.data   132.816859                       # Average occupied blocks per requestor
system.l2cache.tags.occ_percent::.writebacks     0.142328                       # Average percentage of cache occupancy
system.l2cache.tags.occ_percent::.cpu.inst     0.595103                       # Average percentage of cache occupancy
system.l2cache.tags.occ_percent::.cpu.data     0.259408                       # Average percentage of cache occupancy
system.l2cache.tags.occ_percent::total       0.996838                       # Average percentage of cache occupancy
system.l2cache.tags.occ_task_id_blocks::1024          512                       # Occupied blocks per task id
system.l2cache.tags.age_task_id_blocks_1024::0           60                       # Occupied blocks per task id
system.l2cache.tags.age_task_id_blocks_1024::1          207                       # Occupied blocks per task id
system.l2cache.tags.age_task_id_blocks_1024::2          243                       # Occupied blocks per task id
system.l2cache.tags.age_task_id_blocks_1024::3            2                       # Occupied blocks per task id
system.l2cache.tags.occ_task_id_percent::1024            1                       # Percentage of cache occupancy per task id
system.l2cache.tags.tag_accesses               354745                       # Number of tag accesses
system.l2cache.tags.data_accesses              354745                       # Number of data accesses
system.l2cache.tags.power_state.pwrStateResidencyTicks::UNDEFINED  30306597000                       # Cumulative time (in ticks) in various power states
system.l2bar.trans_dist::ReadReq               183044                       # Transaction distribution
system.l2bar.trans_dist::ReadResp              183044                       # Transaction distribution
system.l2bar.trans_dist::WritebackDirty         28770                       # Transaction distribution
system.l2bar.pkt_count_system.dcache.mem_side::system.l2cache.cpu_side       149320                       # Packet count per connected master and slave (bytes)
system.l2bar.pkt_count_system.icache.mem_side::system.l2cache.cpu_side       245538                       # Packet count per connected master and slave (bytes)
system.l2bar.pkt_count::total                  394858                       # Packet count per connected master and slave (bytes)
system.l2bar.pkt_size_system.dcache.mem_side::system.l2cache.cpu_side      5698880                       # Cumulative packet size per connected master and slave (bytes)
system.l2bar.pkt_size_system.icache.mem_side::system.l2cache.cpu_side      7857216                       # Cumulative packet size per connected master and slave (bytes)
system.l2bar.pkt_size::total                 13556096                       # Cumulative packet size per connected master and slave (bytes)
system.l2bar.respLayer1.occupancy           613845000                       # Layer occupancy (ticks)
system.l2bar.respLayer1.utilization               2.0                       # Layer utilization (%)
system.l2bar.reqLayer0.occupancy            326894000                       # Layer occupancy (ticks)
system.l2bar.reqLayer0.utilization                1.1                       # Layer utilization (%)
system.l2bar.respLayer0.occupancy           301375000                       # Layer occupancy (ticks)
system.l2bar.respLayer0.utilization               1.0                       # Layer utilization (%)
system.l2bar.power_state.pwrStateResidencyTicks::UNDEFINED  30306597000                       # Cumulative time (in ticks) in various power states
system.cpu.dtb.walker.power_state.pwrStateResidencyTicks::UNDEFINED  30306597000                       # Cumulative time (in ticks) in various power states
system.cpu.interrupts.clk_domain.clock          16000                       # Clock period in ticks
system.cpu.itb.walker.power_state.pwrStateResidencyTicks::UNDEFINED  30306597000                       # Cumulative time (in ticks) in various power states
system.cpu.power_state.numTransitions               1                       # Number of power state transitions
system.cpu.power_state.pwrStateResidencyTicks::ON  30306597000                       # Cumulative time (in ticks) in various power states

---------- End Simulation Statistics   ----------
