
---------- Begin Simulation Statistics ----------
final_tick                                83595781000                       # Number of ticks from beginning of simulation (restored from checkpoints and never reset)
host_inst_rate                                 221100                       # Simulator instruction rate (inst/s)
host_mem_usage                                 858412                       # Number of bytes of host memory used
host_op_rate                                   385902                       # Simulator op (including micro ops) rate (op/s)
host_seconds                                     4.52                       # Real time elapsed on the host
host_tick_rate                            18482468806                       # Simulator tick rate (ticks/s)
sim_freq                                 1000000000000                       # Frequency of simulated ticks
sim_insts                                     1000000                       # Number of instructions simulated
sim_ops                                       1745419                       # Number of ops (including micro ops) simulated
sim_seconds                                  0.083596                       # Number of seconds simulated
sim_ticks                                 83595781000                       # Number of ticks simulated
system.cachebus.snoop_filter.hit_multi_requests            0                       # Number of requests hitting in the snoop filter with multiple (>1) holders of the requested data.
system.cachebus.snoop_filter.hit_multi_snoops            0                       # Number of snoops hitting in the snoop filter with multiple (>1) holders of the requested data.
system.cachebus.snoop_filter.hit_single_requests            0                       # Number of requests hitting in the snoop filter with a single holder of the requested data.
system.cachebus.snoop_filter.hit_single_snoops            0                       # Number of snoops hitting in the snoop filter with a single holder of the requested data.
system.cachebus.snoop_filter.tot_requests            0                       # Total number of requests made to the snoop filter.
system.cachebus.snoop_filter.tot_snoops             0                       # Total number of snoops made to the snoop filter.
system.cpu.Branches                            174592                       # Number of branches fetched
system.cpu.committedInsts                     1000000                       # Number of instructions committed
system.cpu.committedOps                       1745419                       # Number of ops (including micro ops) committed
system.cpu.dtb.rdAccesses                      241318                       # TLB accesses on read requests
system.cpu.dtb.rdMisses                            40                       # TLB misses on read requests
system.cpu.dtb.wrAccesses                      109115                       # TLB accesses on write requests
system.cpu.dtb.wrMisses                            50                       # TLB misses on write requests
system.cpu.idle_fraction                            0                       # Percentage of idle cycles
system.cpu.itb.rdAccesses                           0                       # TLB accesses on read requests
system.cpu.itb.rdMisses                             0                       # TLB misses on read requests
system.cpu.itb.wrAccesses                     1311145                       # TLB accesses on write requests
system.cpu.itb.wrMisses                           197                       # TLB misses on write requests
system.cpu.not_idle_fraction                        1                       # Percentage of non-idle cycles
system.cpu.numCycles                         83595781                       # number of cpu cycles simulated
system.cpu.numWorkItemsCompleted                    0                       # number of work items this cpu completed
system.cpu.numWorkItemsStarted                      0                       # number of work items this cpu started
system.cpu.num_busy_cycles                   83595781                       # Number of busy cycles
system.cpu.num_cc_register_reads               785715                       # number of times the CC registers were read
system.cpu.num_cc_register_writes              610912                       # number of times the CC registers were written
system.cpu.num_conditional_control_insts       124965                       # number of instructions that are conditional controls
system.cpu.num_fp_alu_accesses                 227332                       # Number of float alu accesses
system.cpu.num_fp_insts                        227332                       # number of float instructions
system.cpu.num_fp_register_reads               296351                       # number of times the floating registers were read
system.cpu.num_fp_register_writes              189857                       # number of times the floating registers were written
system.cpu.num_func_calls                       38985                       # number of times a function call or return occured
system.cpu.num_idle_cycles                          0                       # Number of idle cycles
system.cpu.num_int_alu_accesses               1622372                       # Number of integer alu accesses
system.cpu.num_int_insts                      1622372                       # number of integer instructions
system.cpu.num_int_register_reads             3358762                       # number of times the integer registers were read
system.cpu.num_int_register_writes            1409943                       # number of times the integer registers were written
system.cpu.num_load_insts                      241290                       # Number of load instructions
system.cpu.num_mem_refs                        350375                       # number of memory refs
system.cpu.num_store_insts                     109085                       # Number of store instructions
system.cpu.num_vec_alu_accesses                     0                       # Number of vector alu accesses
system.cpu.num_vec_insts                            0                       # number of vector instructions
system.cpu.num_vec_register_reads                   0                       # number of times the vector registers were read
system.cpu.num_vec_register_writes                  0                       # number of times the vector registers were written
system.cpu.op_class::No_OpClass                 13715      0.79%      0.79% # Class of executed instruction
system.cpu.op_class::IntAlu                   1211685     69.42%     70.21% # Class of executed instruction
system.cpu.op_class::IntMult                    11532      0.66%     70.87% # Class of executed instruction
system.cpu.op_class::IntDiv                     72268      4.14%     75.01% # Class of executed instruction
system.cpu.op_class::FloatAdd                     141      0.01%     75.01% # Class of executed instruction
system.cpu.op_class::FloatCmp                       0      0.00%     75.01% # Class of executed instruction
system.cpu.op_class::FloatCvt                       0      0.00%     75.01% # Class of executed instruction
system.cpu.op_class::FloatMult                      0      0.00%     75.01% # Class of executed instruction
system.cpu.op_class::FloatMultAcc                   0      0.00%     75.01% # Class of executed instruction
system.cpu.op_class::FloatDiv                       0      0.00%     75.01% # Class of executed instruction
system.cpu.op_class::FloatMisc                      0      0.00%     75.01% # Class of executed instruction
system.cpu.op_class::FloatSqrt                      0      0.00%     75.01% # Class of executed instruction
system.cpu.op_class::SimdAdd                       26      0.00%     75.02% # Class of executed instruction
system.cpu.op_class::SimdAddAcc                     0      0.00%     75.02% # Class of executed instruction
system.cpu.op_class::SimdAlu                    11184      0.64%     75.66% # Class of executed instruction
system.cpu.op_class::SimdCmp                        0      0.00%     75.66% # Class of executed instruction
system.cpu.op_class::SimdCvt                      382      0.02%     75.68% # Class of executed instruction
system.cpu.op_class::SimdMisc                    3900      0.22%     75.90% # Class of executed instruction
system.cpu.op_class::SimdMult                       0      0.00%     75.90% # Class of executed instruction
system.cpu.op_class::SimdMultAcc                    0      0.00%     75.90% # Class of executed instruction
system.cpu.op_class::SimdShift                      0      0.00%     75.90% # Class of executed instruction
system.cpu.op_class::SimdShiftAcc                   0      0.00%     75.90% # Class of executed instruction
system.cpu.op_class::SimdDiv                        0      0.00%     75.90% # Class of executed instruction
system.cpu.op_class::SimdSqrt                       0      0.00%     75.90% # Class of executed instruction
system.cpu.op_class::SimdFloatAdd               23044      1.32%     77.22% # Class of executed instruction
system.cpu.op_class::SimdFloatAlu                   0      0.00%     77.22% # Class of executed instruction
system.cpu.op_class::SimdFloatCmp                   0      0.00%     77.22% # Class of executed instruction
system.cpu.op_class::SimdFloatCvt                7744      0.44%     77.67% # Class of executed instruction
system.cpu.op_class::SimdFloatDiv                 222      0.01%     77.68% # Class of executed instruction
system.cpu.op_class::SimdFloatMisc                  0      0.00%     77.68% # Class of executed instruction
system.cpu.op_class::SimdFloatMult              39221      2.25%     79.93% # Class of executed instruction
system.cpu.op_class::SimdFloatMultAcc               0      0.00%     79.93% # Class of executed instruction
system.cpu.op_class::SimdFloatSqrt                  0      0.00%     79.93% # Class of executed instruction
system.cpu.op_class::SimdReduceAdd                  0      0.00%     79.93% # Class of executed instruction
system.cpu.op_class::SimdReduceAlu                  0      0.00%     79.93% # Class of executed instruction
system.cpu.op_class::SimdReduceCmp                  0      0.00%     79.93% # Class of executed instruction
system.cpu.op_class::SimdFloatReduceAdd             0      0.00%     79.93% # Class of executed instruction
system.cpu.op_class::SimdFloatReduceCmp             0      0.00%     79.93% # Class of executed instruction
system.cpu.op_class::SimdAes                        0      0.00%     79.93% # Class of executed instruction
system.cpu.op_class::SimdAesMix                     0      0.00%     79.93% # Class of executed instruction
system.cpu.op_class::SimdSha1Hash                   0      0.00%     79.93% # Class of executed instruction
system.cpu.op_class::SimdSha1Hash2                  0      0.00%     79.93% # Class of executed instruction
system.cpu.op_class::SimdSha256Hash                 0      0.00%     79.93% # Class of executed instruction
system.cpu.op_class::SimdSha256Hash2                0      0.00%     79.93% # Class of executed instruction
system.cpu.op_class::SimdShaSigma2                  0      0.00%     79.93% # Class of executed instruction
system.cpu.op_class::SimdShaSigma3                  0      0.00%     79.93% # Class of executed instruction
system.cpu.op_class::SimdPredAlu                    0      0.00%     79.93% # Class of executed instruction
system.cpu.op_class::MemRead                   148367      8.50%     88.43% # Class of executed instruction
system.cpu.op_class::MemWrite                   77059      4.41%     92.84% # Class of executed instruction
system.cpu.op_class::FloatMemRead               92923      5.32%     98.17% # Class of executed instruction
system.cpu.op_class::FloatMemWrite              32026      1.83%    100.00% # Class of executed instruction
system.cpu.op_class::IprAccess                      0      0.00%    100.00% # Class of executed instruction
system.cpu.op_class::InstPrefetch                   0      0.00%    100.00% # Class of executed instruction
system.cpu.op_class::total                    1745439                       # Class of executed instruction
system.cpu.workload.numSyscalls                    16                       # Number of system calls
system.membus.snoop_filter.hit_multi_requests            0                       # Number of requests hitting in the snoop filter with multiple (>1) holders of the requested data.
system.membus.snoop_filter.hit_multi_snoops            0                       # Number of snoops hitting in the snoop filter with multiple (>1) holders of the requested data.
system.membus.snoop_filter.hit_single_requests            0                       # Number of requests hitting in the snoop filter with a single holder of the requested data.
system.membus.snoop_filter.hit_single_snoops            0                       # Number of snoops hitting in the snoop filter with a single holder of the requested data.
system.membus.snoop_filter.tot_requests             0                       # Total number of requests made to the snoop filter.
system.membus.snoop_filter.tot_snoops               0                       # Total number of snoops made to the snoop filter.
system.membus.trans_dist::ReadReq             1552390                       # Transaction distribution
system.membus.trans_dist::ReadResp            1552389                       # Transaction distribution
system.membus.trans_dist::WriteReq             109095                       # Transaction distribution
system.membus.trans_dist::WriteResp            109095                       # Transaction distribution
system.membus.trans_dist::SoftPFReq                73                       # Transaction distribution
system.membus.trans_dist::SoftPFResp               73                       # Transaction distribution
system.membus.pkt_count_system.cpu.icache_port::system.mem_ctrl.port      2622289                       # Packet count per connected master and slave (bytes)
system.membus.pkt_count_system.cpu.icache_port::total      2622289                       # Packet count per connected master and slave (bytes)
system.membus.pkt_count_system.memobj.mem_side::system.mem_ctrl.port       700826                       # Packet count per connected master and slave (bytes)
system.membus.pkt_count_system.memobj.mem_side::total       700826                       # Packet count per connected master and slave (bytes)
system.membus.pkt_count::total                3323115                       # Packet count per connected master and slave (bytes)
system.membus.pkt_size_system.cpu.icache_port::system.mem_ctrl.port     10489152                       # Cumulative packet size per connected master and slave (bytes)
system.membus.pkt_size_system.cpu.icache_port::total     10489152                       # Cumulative packet size per connected master and slave (bytes)
system.membus.pkt_size_system.memobj.mem_side::system.mem_ctrl.port      2610378                       # Cumulative packet size per connected master and slave (bytes)
system.membus.pkt_size_system.memobj.mem_side::total      2610378                       # Cumulative packet size per connected master and slave (bytes)
system.membus.pkt_size::total                13099530                       # Cumulative packet size per connected master and slave (bytes)
system.membus.snoops                                0                       # Total snoops (count)
system.membus.snoopTraffic                          0                       # Total snoop traffic (bytes)
system.membus.snoop_fanout::samples           1661558                       # Request fanout histogram
system.membus.snoop_fanout::mean                    0                       # Request fanout histogram
system.membus.snoop_fanout::stdev                   0                       # Request fanout histogram
system.membus.snoop_fanout::underflows              0      0.00%      0.00% # Request fanout histogram
system.membus.snoop_fanout::0                 1661558    100.00%    100.00% # Request fanout histogram
system.membus.snoop_fanout::1                       0      0.00%    100.00% # Request fanout histogram
system.membus.snoop_fanout::overflows               0      0.00%    100.00% # Request fanout histogram
system.membus.snoop_fanout::min_value               0                       # Request fanout histogram
system.membus.snoop_fanout::max_value               0                       # Request fanout histogram
system.membus.snoop_fanout::total             1661558                       # Request fanout histogram
system.membus.reqLayer2.occupancy          1770653000                       # Layer occupancy (ticks)
system.membus.reqLayer2.utilization               2.1                       # Layer utilization (%)
system.membus.respLayer1.occupancy          669516750                       # Layer occupancy (ticks)
system.membus.respLayer1.utilization              0.8                       # Layer utilization (%)
system.membus.respLayer0.occupancy         2981475750                       # Layer occupancy (ticks)
system.membus.respLayer0.utilization              3.6                       # Layer utilization (%)
system.membus.power_state.pwrStateResidencyTicks::UNDEFINED  83595781000                       # Cumulative time (in ticks) in various power states
system.mem_ctrl.bytes_read::.cpu.inst        10489152                       # Number of bytes read from this memory
system.mem_ctrl.bytes_read::.cpu.data         1809629                       # Number of bytes read from this memory
system.mem_ctrl.bytes_read::total            12298781                       # Number of bytes read from this memory
system.mem_ctrl.bytes_inst_read::.cpu.inst     10489152                       # Number of instructions bytes read from this memory
system.mem_ctrl.bytes_inst_read::total       10489152                       # Number of instructions bytes read from this memory
system.mem_ctrl.bytes_written::.cpu.data       800749                       # Number of bytes written to this memory
system.mem_ctrl.bytes_written::total           800749                       # Number of bytes written to this memory
system.mem_ctrl.num_reads::.cpu.inst          1311144                       # Number of read requests responded to by this memory
system.mem_ctrl.num_reads::.cpu.data           241318                       # Number of read requests responded to by this memory
system.mem_ctrl.num_reads::total              1552462                       # Number of read requests responded to by this memory
system.mem_ctrl.num_writes::.cpu.data          109095                       # Number of write requests responded to by this memory
system.mem_ctrl.num_writes::total              109095                       # Number of write requests responded to by this memory
system.mem_ctrl.bw_read::.cpu.inst          125474658                       # Total read bandwidth from this memory (bytes/s)
system.mem_ctrl.bw_read::.cpu.data           21647372                       # Total read bandwidth from this memory (bytes/s)
system.mem_ctrl.bw_read::total              147122030                       # Total read bandwidth from this memory (bytes/s)
system.mem_ctrl.bw_inst_read::.cpu.inst     125474658                       # Instruction read bandwidth from this memory (bytes/s)
system.mem_ctrl.bw_inst_read::total         125474658                       # Instruction read bandwidth from this memory (bytes/s)
system.mem_ctrl.bw_write::.cpu.data           9578821                       # Write bandwidth from this memory (bytes/s)
system.mem_ctrl.bw_write::total               9578821                       # Write bandwidth from this memory (bytes/s)
system.mem_ctrl.bw_total::.cpu.inst         125474658                       # Total bandwidth to/from this memory (bytes/s)
system.mem_ctrl.bw_total::.cpu.data          31226193                       # Total bandwidth to/from this memory (bytes/s)
system.mem_ctrl.bw_total::total             156700851                       # Total bandwidth to/from this memory (bytes/s)
system.mem_ctrl.avgPriority_.cpu.inst::samples   1311145.00                       # Average QoS priority value for accepted requests
system.mem_ctrl.avgPriority_.cpu.data::samples    227912.00                       # Average QoS priority value for accepted requests
system.mem_ctrl.priorityMinLatency       0.000000018750                       # per QoS priority minimum request to response latency (s)
system.mem_ctrl.priorityMaxLatency       0.032619270750                       # per QoS priority maximum request to response latency (s)
system.mem_ctrl.numReadWriteTurnArounds           283                       # Number of turnarounds from READ to WRITE
system.mem_ctrl.numWriteReadTurnArounds           283                       # Number of turnarounds from WRITE to READ
system.mem_ctrl.numStayReadState              3199231                       # Number of times bus staying in READ state
system.mem_ctrl.numStayWriteState                4247                       # Number of times bus staying in WRITE state
system.mem_ctrl.readReqs                      1552463                       # Number of read requests accepted
system.mem_ctrl.writeReqs                      109095                       # Number of write requests accepted
system.mem_ctrl.readBursts                    1552463                       # Number of DRAM read bursts, including those serviced by the write queue
system.mem_ctrl.writeBursts                    109095                       # Number of DRAM write bursts, including those merged in the write queue
system.mem_ctrl.servicedByWrQ                   17966                       # Number of DRAM read bursts serviced by the write queue
system.mem_ctrl.mergedWrBursts                 104535                       # Number of DRAM write bursts merged with an existing one
system.mem_ctrl.neitherReadNorWriteReqs             0                       # Number of requests that are neither read nor write
system.mem_ctrl.perBankRdBursts::0              95879                       # Per bank write bursts
system.mem_ctrl.perBankRdBursts::1              28838                       # Per bank write bursts
system.mem_ctrl.perBankRdBursts::2              76916                       # Per bank write bursts
system.mem_ctrl.perBankRdBursts::3              44144                       # Per bank write bursts
system.mem_ctrl.perBankRdBursts::4               5481                       # Per bank write bursts
system.mem_ctrl.perBankRdBursts::5              23311                       # Per bank write bursts
system.mem_ctrl.perBankRdBursts::6             101733                       # Per bank write bursts
system.mem_ctrl.perBankRdBursts::7              27141                       # Per bank write bursts
system.mem_ctrl.perBankRdBursts::8              54870                       # Per bank write bursts
system.mem_ctrl.perBankRdBursts::9               3172                       # Per bank write bursts
system.mem_ctrl.perBankRdBursts::10              8339                       # Per bank write bursts
system.mem_ctrl.perBankRdBursts::11            429869                       # Per bank write bursts
system.mem_ctrl.perBankRdBursts::12             18094                       # Per bank write bursts
system.mem_ctrl.perBankRdBursts::13            596743                       # Per bank write bursts
system.mem_ctrl.perBankRdBursts::14             13320                       # Per bank write bursts
system.mem_ctrl.perBankRdBursts::15              6647                       # Per bank write bursts
system.mem_ctrl.perBankWrBursts::0                900                       # Per bank write bursts
system.mem_ctrl.perBankWrBursts::1                 21                       # Per bank write bursts
system.mem_ctrl.perBankWrBursts::2                376                       # Per bank write bursts
system.mem_ctrl.perBankWrBursts::3                292                       # Per bank write bursts
system.mem_ctrl.perBankWrBursts::4                282                       # Per bank write bursts
system.mem_ctrl.perBankWrBursts::5                304                       # Per bank write bursts
system.mem_ctrl.perBankWrBursts::6                240                       # Per bank write bursts
system.mem_ctrl.perBankWrBursts::7                209                       # Per bank write bursts
system.mem_ctrl.perBankWrBursts::8                212                       # Per bank write bursts
system.mem_ctrl.perBankWrBursts::9                200                       # Per bank write bursts
system.mem_ctrl.perBankWrBursts::10               226                       # Per bank write bursts
system.mem_ctrl.perBankWrBursts::11               659                       # Per bank write bursts
system.mem_ctrl.perBankWrBursts::12               164                       # Per bank write bursts
system.mem_ctrl.perBankWrBursts::13               105                       # Per bank write bursts
system.mem_ctrl.perBankWrBursts::14               169                       # Per bank write bursts
system.mem_ctrl.perBankWrBursts::15               169                       # Per bank write bursts
system.mem_ctrl.avgRdQLen                        1.00                       # Average read queue length when enqueuing
system.mem_ctrl.avgWrQLen                       27.26                       # Average write queue length when enqueuing
system.mem_ctrl.totQLat                    5703926500                       # Total ticks spent queuing
system.mem_ctrl.totBusLat                  7672485000                       # Total ticks spent in databus transfers
system.mem_ctrl.totMemAccLat              34475745250                       # Total ticks spent from burst creation until serviced by the DRAM
system.mem_ctrl.avgQLat                       3717.13                       # Average queueing delay per DRAM burst
system.mem_ctrl.avgBusLat                     5000.00                       # Average bus latency per DRAM burst
system.mem_ctrl.avgMemAccLat                 22467.13                       # Average memory access latency per DRAM burst
system.mem_ctrl.numRdRetry                          0                       # Number of times read queue was full causing retry
system.mem_ctrl.numWrRetry                          0                       # Number of times write queue was full causing retry
system.mem_ctrl.readRowHits                   1363434                       # Number of row buffer hits during reads
system.mem_ctrl.writeRowHits                     4007                       # Number of row buffer hits during writes
system.mem_ctrl.readRowHitRate                  88.85                       # Row buffer hit rate for reads
system.mem_ctrl.writeRowHitRate                 87.87                       # Row buffer hit rate for writes
system.mem_ctrl.readPktSize::0                   1480                       # Read request sizes (log2)
system.mem_ctrl.readPktSize::1                    169                       # Read request sizes (log2)
system.mem_ctrl.readPktSize::2                  27374                       # Read request sizes (log2)
system.mem_ctrl.readPktSize::3                1523440                       # Read request sizes (log2)
system.mem_ctrl.readPktSize::4                      0                       # Read request sizes (log2)
system.mem_ctrl.readPktSize::5                      0                       # Read request sizes (log2)
system.mem_ctrl.readPktSize::6                      0                       # Read request sizes (log2)
system.mem_ctrl.writePktSize::0                   724                       # Write request sizes (log2)
system.mem_ctrl.writePktSize::1                    49                       # Write request sizes (log2)
system.mem_ctrl.writePktSize::2                 16661                       # Write request sizes (log2)
system.mem_ctrl.writePktSize::3                 91661                       # Write request sizes (log2)
system.mem_ctrl.writePktSize::4                     0                       # Write request sizes (log2)
system.mem_ctrl.writePktSize::5                     0                       # Write request sizes (log2)
system.mem_ctrl.writePktSize::6                     0                       # Write request sizes (log2)
system.mem_ctrl.rdQLenPdf::0                  1534472                       # What read queue length does an incoming req see
system.mem_ctrl.rdQLenPdf::1                       25                       # What read queue length does an incoming req see
system.mem_ctrl.rdQLenPdf::2                        0                       # What read queue length does an incoming req see
system.mem_ctrl.rdQLenPdf::3                        0                       # What read queue length does an incoming req see
system.mem_ctrl.rdQLenPdf::4                        0                       # What read queue length does an incoming req see
system.mem_ctrl.rdQLenPdf::5                        0                       # What read queue length does an incoming req see
system.mem_ctrl.rdQLenPdf::6                        0                       # What read queue length does an incoming req see
system.mem_ctrl.rdQLenPdf::7                        0                       # What read queue length does an incoming req see
system.mem_ctrl.rdQLenPdf::8                        0                       # What read queue length does an incoming req see
system.mem_ctrl.rdQLenPdf::9                        0                       # What read queue length does an incoming req see
system.mem_ctrl.rdQLenPdf::10                       0                       # What read queue length does an incoming req see
system.mem_ctrl.rdQLenPdf::11                       0                       # What read queue length does an incoming req see
system.mem_ctrl.rdQLenPdf::12                       0                       # What read queue length does an incoming req see
system.mem_ctrl.rdQLenPdf::13                       0                       # What read queue length does an incoming req see
system.mem_ctrl.rdQLenPdf::14                       0                       # What read queue length does an incoming req see
system.mem_ctrl.rdQLenPdf::15                       0                       # What read queue length does an incoming req see
system.mem_ctrl.rdQLenPdf::16                       0                       # What read queue length does an incoming req see
system.mem_ctrl.rdQLenPdf::17                       0                       # What read queue length does an incoming req see
system.mem_ctrl.rdQLenPdf::18                       0                       # What read queue length does an incoming req see
system.mem_ctrl.rdQLenPdf::19                       0                       # What read queue length does an incoming req see
system.mem_ctrl.rdQLenPdf::20                       0                       # What read queue length does an incoming req see
system.mem_ctrl.rdQLenPdf::21                       0                       # What read queue length does an incoming req see
system.mem_ctrl.rdQLenPdf::22                       0                       # What read queue length does an incoming req see
system.mem_ctrl.rdQLenPdf::23                       0                       # What read queue length does an incoming req see
system.mem_ctrl.rdQLenPdf::24                       0                       # What read queue length does an incoming req see
system.mem_ctrl.rdQLenPdf::25                       0                       # What read queue length does an incoming req see
system.mem_ctrl.rdQLenPdf::26                       0                       # What read queue length does an incoming req see
system.mem_ctrl.rdQLenPdf::27                       0                       # What read queue length does an incoming req see
system.mem_ctrl.rdQLenPdf::28                       0                       # What read queue length does an incoming req see
system.mem_ctrl.rdQLenPdf::29                       0                       # What read queue length does an incoming req see
system.mem_ctrl.rdQLenPdf::30                       0                       # What read queue length does an incoming req see
system.mem_ctrl.rdQLenPdf::31                       0                       # What read queue length does an incoming req see
system.mem_ctrl.wrQLenPdf::0                        1                       # What write queue length does an incoming req see
system.mem_ctrl.wrQLenPdf::1                        1                       # What write queue length does an incoming req see
system.mem_ctrl.wrQLenPdf::2                        1                       # What write queue length does an incoming req see
system.mem_ctrl.wrQLenPdf::3                        1                       # What write queue length does an incoming req see
system.mem_ctrl.wrQLenPdf::4                        1                       # What write queue length does an incoming req see
system.mem_ctrl.wrQLenPdf::5                        1                       # What write queue length does an incoming req see
system.mem_ctrl.wrQLenPdf::6                        1                       # What write queue length does an incoming req see
system.mem_ctrl.wrQLenPdf::7                        1                       # What write queue length does an incoming req see
system.mem_ctrl.wrQLenPdf::8                        1                       # What write queue length does an incoming req see
system.mem_ctrl.wrQLenPdf::9                        1                       # What write queue length does an incoming req see
system.mem_ctrl.wrQLenPdf::10                       1                       # What write queue length does an incoming req see
system.mem_ctrl.wrQLenPdf::11                       1                       # What write queue length does an incoming req see
system.mem_ctrl.wrQLenPdf::12                       1                       # What write queue length does an incoming req see
system.mem_ctrl.wrQLenPdf::13                       1                       # What write queue length does an incoming req see
system.mem_ctrl.wrQLenPdf::14                       1                       # What write queue length does an incoming req see
system.mem_ctrl.wrQLenPdf::15                       1                       # What write queue length does an incoming req see
system.mem_ctrl.wrQLenPdf::16                       1                       # What write queue length does an incoming req see
system.mem_ctrl.wrQLenPdf::17                     284                       # What write queue length does an incoming req see
system.mem_ctrl.wrQLenPdf::18                     284                       # What write queue length does an incoming req see
system.mem_ctrl.wrQLenPdf::19                     284                       # What write queue length does an incoming req see
system.mem_ctrl.wrQLenPdf::20                     284                       # What write queue length does an incoming req see
system.mem_ctrl.wrQLenPdf::21                     284                       # What write queue length does an incoming req see
system.mem_ctrl.wrQLenPdf::22                     284                       # What write queue length does an incoming req see
system.mem_ctrl.wrQLenPdf::23                     284                       # What write queue length does an incoming req see
system.mem_ctrl.wrQLenPdf::24                     284                       # What write queue length does an incoming req see
system.mem_ctrl.wrQLenPdf::25                     284                       # What write queue length does an incoming req see
system.mem_ctrl.wrQLenPdf::26                     284                       # What write queue length does an incoming req see
system.mem_ctrl.wrQLenPdf::27                     284                       # What write queue length does an incoming req see
system.mem_ctrl.wrQLenPdf::28                     284                       # What write queue length does an incoming req see
system.mem_ctrl.wrQLenPdf::29                     284                       # What write queue length does an incoming req see
system.mem_ctrl.wrQLenPdf::30                     284                       # What write queue length does an incoming req see
system.mem_ctrl.wrQLenPdf::31                     284                       # What write queue length does an incoming req see
system.mem_ctrl.wrQLenPdf::32                     283                       # What write queue length does an incoming req see
system.mem_ctrl.wrQLenPdf::33                       0                       # What write queue length does an incoming req see
system.mem_ctrl.wrQLenPdf::34                       0                       # What write queue length does an incoming req see
system.mem_ctrl.wrQLenPdf::35                       0                       # What write queue length does an incoming req see
system.mem_ctrl.wrQLenPdf::36                       0                       # What write queue length does an incoming req see
system.mem_ctrl.wrQLenPdf::37                       0                       # What write queue length does an incoming req see
system.mem_ctrl.wrQLenPdf::38                       0                       # What write queue length does an incoming req see
system.mem_ctrl.wrQLenPdf::39                       0                       # What write queue length does an incoming req see
system.mem_ctrl.wrQLenPdf::40                       0                       # What write queue length does an incoming req see
system.mem_ctrl.wrQLenPdf::41                       0                       # What write queue length does an incoming req see
system.mem_ctrl.wrQLenPdf::42                       0                       # What write queue length does an incoming req see
system.mem_ctrl.wrQLenPdf::43                       0                       # What write queue length does an incoming req see
system.mem_ctrl.wrQLenPdf::44                       0                       # What write queue length does an incoming req see
system.mem_ctrl.wrQLenPdf::45                       0                       # What write queue length does an incoming req see
system.mem_ctrl.wrQLenPdf::46                       0                       # What write queue length does an incoming req see
system.mem_ctrl.wrQLenPdf::47                       0                       # What write queue length does an incoming req see
system.mem_ctrl.wrQLenPdf::48                       0                       # What write queue length does an incoming req see
system.mem_ctrl.wrQLenPdf::49                       0                       # What write queue length does an incoming req see
system.mem_ctrl.wrQLenPdf::50                       0                       # What write queue length does an incoming req see
system.mem_ctrl.wrQLenPdf::51                       0                       # What write queue length does an incoming req see
system.mem_ctrl.wrQLenPdf::52                       0                       # What write queue length does an incoming req see
system.mem_ctrl.wrQLenPdf::53                       0                       # What write queue length does an incoming req see
system.mem_ctrl.wrQLenPdf::54                       0                       # What write queue length does an incoming req see
system.mem_ctrl.wrQLenPdf::55                       0                       # What write queue length does an incoming req see
system.mem_ctrl.wrQLenPdf::56                       0                       # What write queue length does an incoming req see
system.mem_ctrl.wrQLenPdf::57                       0                       # What write queue length does an incoming req see
system.mem_ctrl.wrQLenPdf::58                       0                       # What write queue length does an incoming req see
system.mem_ctrl.wrQLenPdf::59                       0                       # What write queue length does an incoming req see
system.mem_ctrl.wrQLenPdf::60                       0                       # What write queue length does an incoming req see
system.mem_ctrl.wrQLenPdf::61                       0                       # What write queue length does an incoming req see
system.mem_ctrl.wrQLenPdf::62                       0                       # What write queue length does an incoming req see
system.mem_ctrl.wrQLenPdf::63                       0                       # What write queue length does an incoming req see
system.mem_ctrl.bytesPerActivate::samples       171579                       # Bytes accessed per row activation
system.mem_ctrl.bytesPerActivate::mean     574.060369                       # Bytes accessed per row activation
system.mem_ctrl.bytesPerActivate::gmean    365.055758                       # Bytes accessed per row activation
system.mem_ctrl.bytesPerActivate::stdev    406.177559                       # Bytes accessed per row activation
system.mem_ctrl.bytesPerActivate::0-127         36756     21.42%     21.42% # Bytes accessed per row activation
system.mem_ctrl.bytesPerActivate::128-255        19518     11.38%     32.80% # Bytes accessed per row activation
system.mem_ctrl.bytesPerActivate::256-383        10753      6.27%     39.06% # Bytes accessed per row activation
system.mem_ctrl.bytesPerActivate::384-511        12978      7.56%     46.63% # Bytes accessed per row activation
system.mem_ctrl.bytesPerActivate::512-639         8625      5.03%     51.66% # Bytes accessed per row activation
system.mem_ctrl.bytesPerActivate::640-767         7028      4.10%     55.75% # Bytes accessed per row activation
system.mem_ctrl.bytesPerActivate::768-895         8938      5.21%     60.96% # Bytes accessed per row activation
system.mem_ctrl.bytesPerActivate::896-1023         4166      2.43%     63.39% # Bytes accessed per row activation
system.mem_ctrl.bytesPerActivate::1024-1151        62817     36.61%    100.00% # Bytes accessed per row activation
system.mem_ctrl.bytesPerActivate::total        171579                       # Bytes accessed per row activation
system.mem_ctrl.rdPerTurnAround::samples          283                       # Reads before turning the bus around for writes
system.mem_ctrl.rdPerTurnAround::mean     5368.240283                       # Reads before turning the bus around for writes
system.mem_ctrl.rdPerTurnAround::gmean    1524.955918                       # Reads before turning the bus around for writes
system.mem_ctrl.rdPerTurnAround::stdev   12289.170528                       # Reads before turning the bus around for writes
system.mem_ctrl.rdPerTurnAround::0-4095           238     84.10%     84.10% # Reads before turning the bus around for writes
system.mem_ctrl.rdPerTurnAround::4096-8191           11      3.89%     87.99% # Reads before turning the bus around for writes
system.mem_ctrl.rdPerTurnAround::8192-12287            4      1.41%     89.40% # Reads before turning the bus around for writes
system.mem_ctrl.rdPerTurnAround::12288-16383            2      0.71%     90.11% # Reads before turning the bus around for writes
system.mem_ctrl.rdPerTurnAround::16384-20479            2      0.71%     90.81% # Reads before turning the bus around for writes
system.mem_ctrl.rdPerTurnAround::20480-24575            4      1.41%     92.23% # Reads before turning the bus around for writes
system.mem_ctrl.rdPerTurnAround::24576-28671            4      1.41%     93.64% # Reads before turning the bus around for writes
system.mem_ctrl.rdPerTurnAround::28672-32767            2      0.71%     94.35% # Reads before turning the bus around for writes
system.mem_ctrl.rdPerTurnAround::32768-36863            1      0.35%     94.70% # Reads before turning the bus around for writes
system.mem_ctrl.rdPerTurnAround::36864-40959            1      0.35%     95.05% # Reads before turning the bus around for writes
system.mem_ctrl.rdPerTurnAround::40960-45055            2      0.71%     95.76% # Reads before turning the bus around for writes
system.mem_ctrl.rdPerTurnAround::45056-49151            6      2.12%     97.88% # Reads before turning the bus around for writes
system.mem_ctrl.rdPerTurnAround::49152-53247            3      1.06%     98.94% # Reads before turning the bus around for writes
system.mem_ctrl.rdPerTurnAround::65536-69631            2      0.71%     99.65% # Reads before turning the bus around for writes
system.mem_ctrl.rdPerTurnAround::73728-77823            1      0.35%    100.00% # Reads before turning the bus around for writes
system.mem_ctrl.rdPerTurnAround::total            283                       # Reads before turning the bus around for writes
system.mem_ctrl.wrPerTurnAround::samples          283                       # Writes before turning the bus around for reads
system.mem_ctrl.wrPerTurnAround::mean              16                       # Writes before turning the bus around for reads
system.mem_ctrl.wrPerTurnAround::gmean      16.000000                       # Writes before turning the bus around for reads
system.mem_ctrl.wrPerTurnAround::16               283    100.00%    100.00% # Writes before turning the bus around for reads
system.mem_ctrl.wrPerTurnAround::total            283                       # Writes before turning the bus around for reads
system.mem_ctrl.bytesReadDRAM                98207808                       # Total number of bytes read from DRAM
system.mem_ctrl.bytesReadWrQ                  1149824                       # Total number of bytes read from write queue
system.mem_ctrl.bytesWritten                   289792                       # Total number of bytes written to DRAM
system.mem_ctrl.bytesReadSys                 12298789                       # Total read bytes from the system interface side
system.mem_ctrl.bytesWrittenSys                800749                       # Total written bytes from the system interface side
system.mem_ctrl.avgRdBW                       1174.79                       # Average DRAM read bandwidth in MiByte/s
system.mem_ctrl.avgWrBW                          3.47                       # Average achieved write bandwidth in MiByte/s
system.mem_ctrl.avgRdBWSys                     147.12                       # Average system read bandwidth in MiByte/s
system.mem_ctrl.avgWrBWSys                       9.58                       # Average system write bandwidth in MiByte/s
system.mem_ctrl.peakBW                       12800.00                       # Theoretical peak bandwidth in MiByte/s
system.mem_ctrl.busUtil                          9.21                       # Data bus utilization in percentage
system.mem_ctrl.busUtilRead                      9.18                       # Data bus utilization in percentage for reads
system.mem_ctrl.busUtilWrite                     0.03                       # Data bus utilization in percentage for writes
system.mem_ctrl.totGap                    83595704000                       # Total gap between requests
system.mem_ctrl.avgGap                       50311.64                       # Average gap between requests
system.mem_ctrl.masterReadBytes::.cpu.inst     10489160                       # Per-master bytes read from memory
system.mem_ctrl.masterReadBytes::.cpu.data      1679857                       # Per-master bytes read from memory
system.mem_ctrl.masterWriteBytes::.cpu.data        33924                       # Per-master bytes write to memory
system.mem_ctrl.masterReadRate::.cpu.inst 125474753.325170814991                       # Per-master bytes read from memory rate (Bytes/sec)
system.mem_ctrl.masterReadRate::.cpu.data 20094997.377917911857                       # Per-master bytes read from memory rate (Bytes/sec)
system.mem_ctrl.masterWriteRate::.cpu.data 405809.953495141119                       # Per-master bytes write to memory rate (Bytes/sec)
system.mem_ctrl.masterReadAccesses::.cpu.inst      1311145                       # Per-master read serviced memory accesses
system.mem_ctrl.masterReadAccesses::.cpu.data       241318                       # Per-master read serviced memory accesses
system.mem_ctrl.masterWriteAccesses::.cpu.data       109095                       # Per-master write serviced memory accesses
system.mem_ctrl.masterReadTotalLat::.cpu.inst  28678756000                       # Per-master read total memory access latency
system.mem_ctrl.masterReadTotalLat::.cpu.data   5796989250                       # Per-master read total memory access latency
system.mem_ctrl.masterWriteTotalLat::.cpu.data 2202767004500                       # Per-master write total memory access latency
system.mem_ctrl.masterReadAvgLat::.cpu.inst     21873.06                       # Per-master read average memory access latency
system.mem_ctrl.masterReadAvgLat::.cpu.data     24022.20                       # Per-master read average memory access latency
system.mem_ctrl.masterWriteAvgLat::.cpu.data  20191273.70                       # Per-master write average memory access latency
system.mem_ctrl.pageHitRate                     88.85                       # Row buffer hit rate, read and write combined
system.mem_ctrl.rank1.actEnergy             848610420                       # Energy for activate commands per rank (pJ)
system.mem_ctrl.rank1.preEnergy             451039545                       # Energy for precharge commands per rank (pJ)
system.mem_ctrl.rank1.readEnergy           8075725560                       # Energy for read commands per rank (pJ)
system.mem_ctrl.rank1.writeEnergy             9938880                       # Energy for write commands per rank (pJ)
system.mem_ctrl.rank1.refreshEnergy      6598775040.000001                       # Energy for refresh commands per rank (pJ)
system.mem_ctrl.rank1.actBackEnergy       36202411140                       # Energy for active background per rank (pJ)
system.mem_ctrl.rank1.preBackEnergy        1614539040                       # Energy for precharge background per rank (pJ)
system.mem_ctrl.rank1.actPowerDownEnergy            0                       # Energy for active power-down per rank (pJ)
system.mem_ctrl.rank1.prePowerDownEnergy            0                       # Energy for precharge power-down per rank (pJ)
system.mem_ctrl.rank1.selfRefreshEnergy             0                       # Energy for self refresh per rank (pJ)
system.mem_ctrl.rank1.totalEnergy         53801039625                       # Total energy per rank (pJ)
system.mem_ctrl.rank1.averagePower         643.585585                       # Core power per rank (mW)
system.mem_ctrl.rank1.totalIdleTime                 0                       # Total Idle time Per DRAM Rank
system.mem_ctrl.rank1.memoryStateTime::IDLE   3809563750                       # Time in different power states
system.mem_ctrl.rank1.memoryStateTime::REF   2791360000                       # Time in different power states
system.mem_ctrl.rank1.memoryStateTime::SREF            0                       # Time in different power states
system.mem_ctrl.rank1.memoryStateTime::PRE_PDN            0                       # Time in different power states
system.mem_ctrl.rank1.memoryStateTime::ACT  76994857250                       # Time in different power states
system.mem_ctrl.rank1.memoryStateTime::ACT_PDN            0                       # Time in different power states
system.mem_ctrl.rank0.actEnergy             376499340                       # Energy for activate commands per rank (pJ)
system.mem_ctrl.rank0.preEnergy             200102760                       # Energy for precharge commands per rank (pJ)
system.mem_ctrl.rank0.readEnergy           2880583020                       # Energy for read commands per rank (pJ)
system.mem_ctrl.rank0.writeEnergy            13697280                       # Energy for write commands per rank (pJ)
system.mem_ctrl.rank0.refreshEnergy      6598775040.000001                       # Energy for refresh commands per rank (pJ)
system.mem_ctrl.rank0.actBackEnergy       33716885100                       # Energy for active background per rank (pJ)
system.mem_ctrl.rank0.preBackEnergy        3707613600                       # Energy for precharge background per rank (pJ)
system.mem_ctrl.rank0.actPowerDownEnergy            0                       # Energy for active power-down per rank (pJ)
system.mem_ctrl.rank0.prePowerDownEnergy            0                       # Energy for precharge power-down per rank (pJ)
system.mem_ctrl.rank0.selfRefreshEnergy             0                       # Energy for self refresh per rank (pJ)
system.mem_ctrl.rank0.totalEnergy         47494156140                       # Total energy per rank (pJ)
system.mem_ctrl.rank0.averagePower         568.140588                       # Core power per rank (mW)
system.mem_ctrl.rank0.totalIdleTime                 0                       # Total Idle time Per DRAM Rank
system.mem_ctrl.rank0.memoryStateTime::IDLE   9304110500                       # Time in different power states
system.mem_ctrl.rank0.memoryStateTime::REF   2791360000                       # Time in different power states
system.mem_ctrl.rank0.memoryStateTime::SREF            0                       # Time in different power states
system.mem_ctrl.rank0.memoryStateTime::PRE_PDN            0                       # Time in different power states
system.mem_ctrl.rank0.memoryStateTime::ACT  71500310500                       # Time in different power states
system.mem_ctrl.rank0.memoryStateTime::ACT_PDN            0                       # Time in different power states
system.mem_ctrl.power_state.pwrStateResidencyTicks::UNDEFINED  83595781000                       # Cumulative time (in ticks) in various power states
system.cache.blocked_cycles::no_mshrs               0                       # number of cycles access was blocked
system.cache.blocked_cycles::no_targets             0                       # number of cycles access was blocked
system.cache.blocked::no_mshrs                      0                       # number of cycles access was blocked
system.cache.blocked::no_targets                    0                       # number of cycles access was blocked
system.cache.avg_blocked_cycles::no_mshrs          nan                       # average number of cycles each access was blocked
system.cache.avg_blocked_cycles::no_targets          nan                       # average number of cycles each access was blocked
system.cache.replacements                           0                       # number of replacements
system.cache.power_state.pwrStateResidencyTicks::UNDEFINED  83595781000                       # Cumulative time (in ticks) in various power states
system.cache.tags.tagsinuse                         0                       # Cycle average of tags in use
system.cache.tags.total_refs                        0                       # Total number of references to valid blocks.
system.cache.tags.sampled_refs                      0                       # Sample count of references to valid blocks.
system.cache.tags.avg_refs                        nan                       # Average number of references to valid blocks.
system.cache.tags.warmup_cycle                      0                       # Cycle when the warmup percentage was hit.
system.cache.tags.tag_accesses                      0                       # Number of tag accesses
system.cache.tags.data_accesses                     0                       # Number of data accesses
system.cache.tags.power_state.pwrStateResidencyTicks::UNDEFINED  83595781000                       # Cumulative time (in ticks) in various power states
system.clk_domain.clock                          1000                       # Clock period in ticks
system.clk_domain.voltage_domain.voltage            1                       # Voltage in Volts
system.cachebus.snoops                              0                       # Total snoops (count)
system.cachebus.snoopTraffic                        0                       # Total snoop traffic (bytes)
system.cachebus.snoop_fanout::samples               0                       # Request fanout histogram
system.cachebus.snoop_fanout::mean                nan                       # Request fanout histogram
system.cachebus.snoop_fanout::stdev               nan                       # Request fanout histogram
system.cachebus.snoop_fanout::underflows            0                       # Request fanout histogram
system.cachebus.snoop_fanout::0                     0                       # Request fanout histogram
system.cachebus.snoop_fanout::overflows             0                       # Request fanout histogram
system.cachebus.snoop_fanout::min_value             0                       # Request fanout histogram
system.cachebus.snoop_fanout::max_value             0                       # Request fanout histogram
system.cachebus.snoop_fanout::total                 0                       # Request fanout histogram
system.cachebus.power_state.pwrStateResidencyTicks::UNDEFINED  83595781000                       # Cumulative time (in ticks) in various power states
system.cpu.dtb.walker.power_state.pwrStateResidencyTicks::UNDEFINED  83595781000                       # Cumulative time (in ticks) in various power states
system.cpu.interrupts.clk_domain.clock          16000                       # Clock period in ticks
system.cpu.itb.walker.power_state.pwrStateResidencyTicks::UNDEFINED  83595781000                       # Cumulative time (in ticks) in various power states
system.cpu.power_state.numTransitions               1                       # Number of power state transitions
system.cpu.power_state.pwrStateResidencyTicks::ON  83595781000                       # Cumulative time (in ticks) in various power states

---------- End Simulation Statistics   ----------
