
---------- Begin Simulation Statistics ----------
final_tick                                79207957000                       # Number of ticks from beginning of simulation (restored from checkpoints and never reset)
host_inst_rate                                 194651                       # Simulator instruction rate (inst/s)
host_mem_usage                                 763652                       # Number of bytes of host memory used
host_op_rate                                   392144                       # Simulator op (including micro ops) rate (op/s)
host_seconds                                     5.14                       # Real time elapsed on the host
host_tick_rate                            15417310760                       # Simulator tick rate (ticks/s)
sim_freq                                 1000000000000                       # Frequency of simulated ticks
sim_insts                                     1000000                       # Number of instructions simulated
sim_ops                                       2014654                       # Number of ops (including micro ops) simulated
sim_seconds                                  0.079208                       # Number of seconds simulated
sim_ticks                                 79207957000                       # Number of ticks simulated
system.cachebus.snoop_filter.hit_multi_requests            0                       # Number of requests hitting in the snoop filter with multiple (>1) holders of the requested data.
system.cachebus.snoop_filter.hit_multi_snoops            0                       # Number of snoops hitting in the snoop filter with multiple (>1) holders of the requested data.
system.cachebus.snoop_filter.hit_single_requests            0                       # Number of requests hitting in the snoop filter with a single holder of the requested data.
system.cachebus.snoop_filter.hit_single_snoops            0                       # Number of snoops hitting in the snoop filter with a single holder of the requested data.
system.cachebus.snoop_filter.tot_requests            0                       # Total number of requests made to the snoop filter.
system.cachebus.snoop_filter.tot_snoops             0                       # Total number of snoops made to the snoop filter.
system.cpu.Branches                            239768                       # Number of branches fetched
system.cpu.committedInsts                     1000000                       # Number of instructions committed
system.cpu.committedOps                       2014654                       # Number of ops (including micro ops) committed
system.cpu.dtb.rdAccesses                      178019                       # TLB accesses on read requests
system.cpu.dtb.rdMisses                           266                       # TLB misses on read requests
system.cpu.dtb.wrAccesses                      135865                       # TLB accesses on write requests
system.cpu.dtb.wrMisses                           203                       # TLB misses on write requests
system.cpu.idle_fraction                            0                       # Percentage of idle cycles
system.cpu.itb.rdAccesses                           0                       # TLB accesses on read requests
system.cpu.itb.rdMisses                             0                       # TLB misses on read requests
system.cpu.itb.wrAccesses                     1293187                       # TLB accesses on write requests
system.cpu.itb.wrMisses                           178                       # TLB misses on write requests
system.cpu.not_idle_fraction                        1                       # Percentage of non-idle cycles
system.cpu.numCycles                         79207957                       # number of cpu cycles simulated
system.cpu.numWorkItemsCompleted                    0                       # number of work items this cpu completed
system.cpu.numWorkItemsStarted                      0                       # number of work items this cpu started
system.cpu.num_busy_cycles                   79207957                       # Number of busy cycles
system.cpu.num_cc_register_reads              1574009                       # number of times the CC registers were read
system.cpu.num_cc_register_writes              729553                       # number of times the CC registers were written
system.cpu.num_conditional_control_insts       202089                       # number of instructions that are conditional controls
system.cpu.num_fp_alu_accesses                  91353                       # Number of float alu accesses
system.cpu.num_fp_insts                         91353                       # number of float instructions
system.cpu.num_fp_register_reads               145093                       # number of times the floating registers were read
system.cpu.num_fp_register_writes               65455                       # number of times the floating registers were written
system.cpu.num_func_calls                       28341                       # number of times a function call or return occured
system.cpu.num_idle_cycles                          0                       # Number of idle cycles
system.cpu.num_int_alu_accesses               1937637                       # Number of integer alu accesses
system.cpu.num_int_insts                      1937637                       # number of integer instructions
system.cpu.num_int_register_reads             3538931                       # number of times the integer registers were read
system.cpu.num_int_register_writes            1567325                       # number of times the integer registers were written
system.cpu.num_load_insts                      177153                       # Number of load instructions
system.cpu.num_mem_refs                        313001                       # number of memory refs
system.cpu.num_store_insts                     135848                       # Number of store instructions
system.cpu.num_vec_alu_accesses                     0                       # Number of vector alu accesses
system.cpu.num_vec_insts                            0                       # number of vector instructions
system.cpu.num_vec_register_reads                   0                       # number of times the vector registers were read
system.cpu.num_vec_register_writes                  0                       # number of times the vector registers were written
system.cpu.op_class::No_OpClass                 23148      1.15%      1.15% # Class of executed instruction
system.cpu.op_class::IntAlu                   1613967     80.11%     81.26% # Class of executed instruction
system.cpu.op_class::IntMult                     1189      0.06%     81.32% # Class of executed instruction
system.cpu.op_class::IntDiv                      1176      0.06%     81.37% # Class of executed instruction
system.cpu.op_class::FloatAdd                     782      0.04%     81.41% # Class of executed instruction
system.cpu.op_class::FloatCmp                       0      0.00%     81.41% # Class of executed instruction
system.cpu.op_class::FloatCvt                       0      0.00%     81.41% # Class of executed instruction
system.cpu.op_class::FloatMult                      0      0.00%     81.41% # Class of executed instruction
system.cpu.op_class::FloatMultAcc                   0      0.00%     81.41% # Class of executed instruction
system.cpu.op_class::FloatDiv                       0      0.00%     81.41% # Class of executed instruction
system.cpu.op_class::FloatMisc                      0      0.00%     81.41% # Class of executed instruction
system.cpu.op_class::FloatSqrt                      0      0.00%     81.41% # Class of executed instruction
system.cpu.op_class::SimdAdd                     1870      0.09%     81.51% # Class of executed instruction
system.cpu.op_class::SimdAddAcc                     0      0.00%     81.51% # Class of executed instruction
system.cpu.op_class::SimdAlu                    30975      1.54%     83.04% # Class of executed instruction
system.cpu.op_class::SimdCmp                       50      0.00%     83.05% # Class of executed instruction
system.cpu.op_class::SimdCvt                    12648      0.63%     83.67% # Class of executed instruction
system.cpu.op_class::SimdMisc                   15127      0.75%     84.42% # Class of executed instruction
system.cpu.op_class::SimdMult                       0      0.00%     84.42% # Class of executed instruction
system.cpu.op_class::SimdMultAcc                    0      0.00%     84.42% # Class of executed instruction
system.cpu.op_class::SimdShift                    771      0.04%     84.46% # Class of executed instruction
system.cpu.op_class::SimdShiftAcc                   0      0.00%     84.46% # Class of executed instruction
system.cpu.op_class::SimdDiv                        0      0.00%     84.46% # Class of executed instruction
system.cpu.op_class::SimdSqrt                       0      0.00%     84.46% # Class of executed instruction
system.cpu.op_class::SimdFloatAdd                   4      0.00%     84.46% # Class of executed instruction
system.cpu.op_class::SimdFloatAlu                   0      0.00%     84.46% # Class of executed instruction
system.cpu.op_class::SimdFloatCmp                   2      0.00%     84.46% # Class of executed instruction
system.cpu.op_class::SimdFloatCvt                  21      0.00%     84.46% # Class of executed instruction
system.cpu.op_class::SimdFloatDiv                   1      0.00%     84.46% # Class of executed instruction
system.cpu.op_class::SimdFloatMisc                  0      0.00%     84.46% # Class of executed instruction
system.cpu.op_class::SimdFloatMult                 12      0.00%     84.46% # Class of executed instruction
system.cpu.op_class::SimdFloatMultAcc               0      0.00%     84.46% # Class of executed instruction
system.cpu.op_class::SimdFloatSqrt                  0      0.00%     84.46% # Class of executed instruction
system.cpu.op_class::SimdReduceAdd                  0      0.00%     84.46% # Class of executed instruction
system.cpu.op_class::SimdReduceAlu                  0      0.00%     84.46% # Class of executed instruction
system.cpu.op_class::SimdReduceCmp                  0      0.00%     84.46% # Class of executed instruction
system.cpu.op_class::SimdFloatReduceAdd             0      0.00%     84.46% # Class of executed instruction
system.cpu.op_class::SimdFloatReduceCmp             0      0.00%     84.46% # Class of executed instruction
system.cpu.op_class::SimdAes                        0      0.00%     84.46% # Class of executed instruction
system.cpu.op_class::SimdAesMix                     0      0.00%     84.46% # Class of executed instruction
system.cpu.op_class::SimdSha1Hash                   0      0.00%     84.46% # Class of executed instruction
system.cpu.op_class::SimdSha1Hash2                  0      0.00%     84.46% # Class of executed instruction
system.cpu.op_class::SimdSha256Hash                 0      0.00%     84.46% # Class of executed instruction
system.cpu.op_class::SimdSha256Hash2                0      0.00%     84.46% # Class of executed instruction
system.cpu.op_class::SimdShaSigma2                  0      0.00%     84.46% # Class of executed instruction
system.cpu.op_class::SimdShaSigma3                  0      0.00%     84.46% # Class of executed instruction
system.cpu.op_class::SimdPredAlu                    0      0.00%     84.46% # Class of executed instruction
system.cpu.op_class::MemRead                   165128      8.20%     92.66% # Class of executed instruction
system.cpu.op_class::MemWrite                  120237      5.97%     98.63% # Class of executed instruction
system.cpu.op_class::FloatMemRead               12025      0.60%     99.23% # Class of executed instruction
system.cpu.op_class::FloatMemWrite              15611      0.77%    100.00% # Class of executed instruction
system.cpu.op_class::IprAccess                      0      0.00%    100.00% # Class of executed instruction
system.cpu.op_class::InstPrefetch                   0      0.00%    100.00% # Class of executed instruction
system.cpu.op_class::total                    2014744                       # Class of executed instruction
system.cpu.workload.numSyscalls                    31                       # Number of system calls
system.membus.snoop_filter.hit_multi_requests            0                       # Number of requests hitting in the snoop filter with multiple (>1) holders of the requested data.
system.membus.snoop_filter.hit_multi_snoops            0                       # Number of snoops hitting in the snoop filter with multiple (>1) holders of the requested data.
system.membus.snoop_filter.hit_single_requests            0                       # Number of requests hitting in the snoop filter with a single holder of the requested data.
system.membus.snoop_filter.hit_single_snoops            0                       # Number of snoops hitting in the snoop filter with a single holder of the requested data.
system.membus.snoop_filter.tot_requests             0                       # Total number of requests made to the snoop filter.
system.membus.snoop_filter.tot_snoops               0                       # Total number of snoops made to the snoop filter.
system.membus.trans_dist::ReadReq             1470215                       # Transaction distribution
system.membus.trans_dist::ReadResp            1470214                       # Transaction distribution
system.membus.trans_dist::WriteReq             135792                       # Transaction distribution
system.membus.trans_dist::WriteResp            135792                       # Transaction distribution
system.membus.trans_dist::SoftPFReq               974                       # Transaction distribution
system.membus.trans_dist::SoftPFResp              974                       # Transaction distribution
system.membus.pkt_count_system.cpu.icache_port::system.mem_ctrl.port      2586373                       # Packet count per connected master and slave (bytes)
system.membus.pkt_count_system.cpu.icache_port::total      2586373                       # Packet count per connected master and slave (bytes)
system.membus.pkt_count_system.memobj.mem_side::system.mem_ctrl.port       627588                       # Packet count per connected master and slave (bytes)
system.membus.pkt_count_system.memobj.mem_side::total       627588                       # Packet count per connected master and slave (bytes)
system.membus.pkt_count::total                3213961                       # Packet count per connected master and slave (bytes)
system.membus.pkt_size_system.cpu.icache_port::system.mem_ctrl.port     10345488                       # Cumulative packet size per connected master and slave (bytes)
system.membus.pkt_size_system.cpu.icache_port::total     10345488                       # Cumulative packet size per connected master and slave (bytes)
system.membus.pkt_size_system.memobj.mem_side::system.mem_ctrl.port      2104778                       # Cumulative packet size per connected master and slave (bytes)
system.membus.pkt_size_system.memobj.mem_side::total      2104778                       # Cumulative packet size per connected master and slave (bytes)
system.membus.pkt_size::total                12450266                       # Cumulative packet size per connected master and slave (bytes)
system.membus.snoops                                0                       # Total snoops (count)
system.membus.snoopTraffic                          0                       # Total snoop traffic (bytes)
system.membus.snoop_fanout::samples           1606981                       # Request fanout histogram
system.membus.snoop_fanout::mean                    0                       # Request fanout histogram
system.membus.snoop_fanout::stdev                   0                       # Request fanout histogram
system.membus.snoop_fanout::underflows              0      0.00%      0.00% # Request fanout histogram
system.membus.snoop_fanout::0                 1606981    100.00%    100.00% # Request fanout histogram
system.membus.snoop_fanout::1                       0      0.00%    100.00% # Request fanout histogram
system.membus.snoop_fanout::overflows               0      0.00%    100.00% # Request fanout histogram
system.membus.snoop_fanout::min_value               0                       # Request fanout histogram
system.membus.snoop_fanout::max_value               0                       # Request fanout histogram
system.membus.snoop_fanout::total             1606981                       # Request fanout histogram
system.membus.reqLayer2.occupancy          1742773000                       # Layer occupancy (ticks)
system.membus.reqLayer2.utilization               2.2                       # Layer utilization (%)
system.membus.respLayer1.occupancy          545765250                       # Layer occupancy (ticks)
system.membus.respLayer1.utilization              0.7                       # Layer utilization (%)
system.membus.respLayer0.occupancy         2934462000                       # Layer occupancy (ticks)
system.membus.respLayer0.utilization              3.7                       # Layer utilization (%)
system.membus.power_state.pwrStateResidencyTicks::UNDEFINED  79207957000                       # Cumulative time (in ticks) in various power states
system.mem_ctrl.bytes_read::.cpu.inst        10345488                       # Number of bytes read from this memory
system.mem_ctrl.bytes_read::.cpu.data         1203553                       # Number of bytes read from this memory
system.mem_ctrl.bytes_read::total            11549041                       # Number of bytes read from this memory
system.mem_ctrl.bytes_inst_read::.cpu.inst     10345488                       # Number of instructions bytes read from this memory
system.mem_ctrl.bytes_inst_read::total       10345488                       # Number of instructions bytes read from this memory
system.mem_ctrl.bytes_written::.cpu.data       901225                       # Number of bytes written to this memory
system.mem_ctrl.bytes_written::total           901225                       # Number of bytes written to this memory
system.mem_ctrl.num_reads::.cpu.inst          1293186                       # Number of read requests responded to by this memory
system.mem_ctrl.num_reads::.cpu.data           178002                       # Number of read requests responded to by this memory
system.mem_ctrl.num_reads::total              1471188                       # Number of read requests responded to by this memory
system.mem_ctrl.num_writes::.cpu.data          135792                       # Number of write requests responded to by this memory
system.mem_ctrl.num_writes::total              135792                       # Number of write requests responded to by this memory
system.mem_ctrl.bw_read::.cpu.inst          130611726                       # Total read bandwidth from this memory (bytes/s)
system.mem_ctrl.bw_read::.cpu.data           15194850                       # Total read bandwidth from this memory (bytes/s)
system.mem_ctrl.bw_read::total              145806576                       # Total read bandwidth from this memory (bytes/s)
system.mem_ctrl.bw_inst_read::.cpu.inst     130611726                       # Instruction read bandwidth from this memory (bytes/s)
system.mem_ctrl.bw_inst_read::total         130611726                       # Instruction read bandwidth from this memory (bytes/s)
system.mem_ctrl.bw_write::.cpu.data          11377960                       # Write bandwidth from this memory (bytes/s)
system.mem_ctrl.bw_write::total              11377960                       # Write bandwidth from this memory (bytes/s)
system.mem_ctrl.bw_total::.cpu.inst         130611726                       # Total bandwidth to/from this memory (bytes/s)
system.mem_ctrl.bw_total::.cpu.data          26572810                       # Total bandwidth to/from this memory (bytes/s)
system.mem_ctrl.bw_total::total             157184536                       # Total bandwidth to/from this memory (bytes/s)
system.mem_ctrl.avgPriority_.cpu.inst::samples   1293187.00                       # Average QoS priority value for accepted requests
system.mem_ctrl.avgPriority_.cpu.data::samples    171909.00                       # Average QoS priority value for accepted requests
system.mem_ctrl.priorityMinLatency       0.000000018750                       # per QoS priority minimum request to response latency (s)
system.mem_ctrl.priorityMaxLatency       0.016622246750                       # per QoS priority maximum request to response latency (s)
system.mem_ctrl.numReadWriteTurnArounds           557                       # Number of turnarounds from READ to WRITE
system.mem_ctrl.numWriteReadTurnArounds           557                       # Number of turnarounds from WRITE to READ
system.mem_ctrl.numStayReadState              3067498                       # Number of times bus staying in READ state
system.mem_ctrl.numStayWriteState                8394                       # Number of times bus staying in WRITE state
system.mem_ctrl.readReqs                      1471189                       # Number of read requests accepted
system.mem_ctrl.writeReqs                      135792                       # Number of write requests accepted
system.mem_ctrl.readBursts                    1471189                       # Number of DRAM read bursts, including those serviced by the write queue
system.mem_ctrl.writeBursts                    135792                       # Number of DRAM write bursts, including those merged in the write queue
system.mem_ctrl.servicedByWrQ                   15064                       # Number of DRAM read bursts serviced by the write queue
system.mem_ctrl.mergedWrBursts                 126821                       # Number of DRAM write bursts merged with an existing one
system.mem_ctrl.neitherReadNorWriteReqs             0                       # Number of requests that are neither read nor write
system.mem_ctrl.perBankRdBursts::0              74640                       # Per bank write bursts
system.mem_ctrl.perBankRdBursts::1              31509                       # Per bank write bursts
system.mem_ctrl.perBankRdBursts::2               4998                       # Per bank write bursts
system.mem_ctrl.perBankRdBursts::3              24811                       # Per bank write bursts
system.mem_ctrl.perBankRdBursts::4             401921                       # Per bank write bursts
system.mem_ctrl.perBankRdBursts::5              75017                       # Per bank write bursts
system.mem_ctrl.perBankRdBursts::6               5858                       # Per bank write bursts
system.mem_ctrl.perBankRdBursts::7             113427                       # Per bank write bursts
system.mem_ctrl.perBankRdBursts::8              31368                       # Per bank write bursts
system.mem_ctrl.perBankRdBursts::9             109630                       # Per bank write bursts
system.mem_ctrl.perBankRdBursts::10             63161                       # Per bank write bursts
system.mem_ctrl.perBankRdBursts::11            233216                       # Per bank write bursts
system.mem_ctrl.perBankRdBursts::12             83532                       # Per bank write bursts
system.mem_ctrl.perBankRdBursts::13              7529                       # Per bank write bursts
system.mem_ctrl.perBankRdBursts::14            107820                       # Per bank write bursts
system.mem_ctrl.perBankRdBursts::15             87688                       # Per bank write bursts
system.mem_ctrl.perBankWrBursts::0                300                       # Per bank write bursts
system.mem_ctrl.perBankWrBursts::1                195                       # Per bank write bursts
system.mem_ctrl.perBankWrBursts::2                149                       # Per bank write bursts
system.mem_ctrl.perBankWrBursts::3                290                       # Per bank write bursts
system.mem_ctrl.perBankWrBursts::4                694                       # Per bank write bursts
system.mem_ctrl.perBankWrBursts::5                269                       # Per bank write bursts
system.mem_ctrl.perBankWrBursts::6                459                       # Per bank write bursts
system.mem_ctrl.perBankWrBursts::7               2271                       # Per bank write bursts
system.mem_ctrl.perBankWrBursts::8                940                       # Per bank write bursts
system.mem_ctrl.perBankWrBursts::9                185                       # Per bank write bursts
system.mem_ctrl.perBankWrBursts::10               369                       # Per bank write bursts
system.mem_ctrl.perBankWrBursts::11                86                       # Per bank write bursts
system.mem_ctrl.perBankWrBursts::12               390                       # Per bank write bursts
system.mem_ctrl.perBankWrBursts::13               787                       # Per bank write bursts
system.mem_ctrl.perBankWrBursts::14               911                       # Per bank write bursts
system.mem_ctrl.perBankWrBursts::15               646                       # Per bank write bursts
system.mem_ctrl.avgRdQLen                        1.00                       # Average read queue length when enqueuing
system.mem_ctrl.avgWrQLen                       26.21                       # Average write queue length when enqueuing
system.mem_ctrl.totQLat                    4720753750                       # Total ticks spent queuing
system.mem_ctrl.totBusLat                  7280625000                       # Total ticks spent in databus transfers
system.mem_ctrl.totMemAccLat              32023097500                       # Total ticks spent from burst creation until serviced by the DRAM
system.mem_ctrl.avgQLat                       3242.00                       # Average queueing delay per DRAM burst
system.mem_ctrl.avgBusLat                     5000.00                       # Average bus latency per DRAM burst
system.mem_ctrl.avgMemAccLat                 21992.00                       # Average memory access latency per DRAM burst
system.mem_ctrl.numRdRetry                          0                       # Number of times read queue was full causing retry
system.mem_ctrl.numWrRetry                          0                       # Number of times write queue was full causing retry
system.mem_ctrl.readRowHits                   1318819                       # Number of row buffer hits during reads
system.mem_ctrl.writeRowHits                     7482                       # Number of row buffer hits during writes
system.mem_ctrl.readRowHitRate                  90.57                       # Row buffer hit rate for reads
system.mem_ctrl.writeRowHitRate                 83.40                       # Row buffer hit rate for writes
system.mem_ctrl.readPktSize::0                  15030                       # Read request sizes (log2)
system.mem_ctrl.readPktSize::1                   2026                       # Read request sizes (log2)
system.mem_ctrl.readPktSize::2                  25403                       # Read request sizes (log2)
system.mem_ctrl.readPktSize::3                1428730                       # Read request sizes (log2)
system.mem_ctrl.readPktSize::4                      0                       # Read request sizes (log2)
system.mem_ctrl.readPktSize::5                      0                       # Read request sizes (log2)
system.mem_ctrl.readPktSize::6                      0                       # Read request sizes (log2)
system.mem_ctrl.writePktSize::0                  9104                       # Write request sizes (log2)
system.mem_ctrl.writePktSize::1                  1806                       # Write request sizes (log2)
system.mem_ctrl.writePktSize::2                 27629                       # Write request sizes (log2)
system.mem_ctrl.writePktSize::3                 97253                       # Write request sizes (log2)
system.mem_ctrl.writePktSize::4                     0                       # Write request sizes (log2)
system.mem_ctrl.writePktSize::5                     0                       # Write request sizes (log2)
system.mem_ctrl.writePktSize::6                     0                       # Write request sizes (log2)
system.mem_ctrl.rdQLenPdf::0                  1455259                       # What read queue length does an incoming req see
system.mem_ctrl.rdQLenPdf::1                      866                       # What read queue length does an incoming req see
system.mem_ctrl.rdQLenPdf::2                        0                       # What read queue length does an incoming req see
system.mem_ctrl.rdQLenPdf::3                        0                       # What read queue length does an incoming req see
system.mem_ctrl.rdQLenPdf::4                        0                       # What read queue length does an incoming req see
system.mem_ctrl.rdQLenPdf::5                        0                       # What read queue length does an incoming req see
system.mem_ctrl.rdQLenPdf::6                        0                       # What read queue length does an incoming req see
system.mem_ctrl.rdQLenPdf::7                        0                       # What read queue length does an incoming req see
system.mem_ctrl.rdQLenPdf::8                        0                       # What read queue length does an incoming req see
system.mem_ctrl.rdQLenPdf::9                        0                       # What read queue length does an incoming req see
system.mem_ctrl.rdQLenPdf::10                       0                       # What read queue length does an incoming req see
system.mem_ctrl.rdQLenPdf::11                       0                       # What read queue length does an incoming req see
system.mem_ctrl.rdQLenPdf::12                       0                       # What read queue length does an incoming req see
system.mem_ctrl.rdQLenPdf::13                       0                       # What read queue length does an incoming req see
system.mem_ctrl.rdQLenPdf::14                       0                       # What read queue length does an incoming req see
system.mem_ctrl.rdQLenPdf::15                       0                       # What read queue length does an incoming req see
system.mem_ctrl.rdQLenPdf::16                       0                       # What read queue length does an incoming req see
system.mem_ctrl.rdQLenPdf::17                       0                       # What read queue length does an incoming req see
system.mem_ctrl.rdQLenPdf::18                       0                       # What read queue length does an incoming req see
system.mem_ctrl.rdQLenPdf::19                       0                       # What read queue length does an incoming req see
system.mem_ctrl.rdQLenPdf::20                       0                       # What read queue length does an incoming req see
system.mem_ctrl.rdQLenPdf::21                       0                       # What read queue length does an incoming req see
system.mem_ctrl.rdQLenPdf::22                       0                       # What read queue length does an incoming req see
system.mem_ctrl.rdQLenPdf::23                       0                       # What read queue length does an incoming req see
system.mem_ctrl.rdQLenPdf::24                       0                       # What read queue length does an incoming req see
system.mem_ctrl.rdQLenPdf::25                       0                       # What read queue length does an incoming req see
system.mem_ctrl.rdQLenPdf::26                       0                       # What read queue length does an incoming req see
system.mem_ctrl.rdQLenPdf::27                       0                       # What read queue length does an incoming req see
system.mem_ctrl.rdQLenPdf::28                       0                       # What read queue length does an incoming req see
system.mem_ctrl.rdQLenPdf::29                       0                       # What read queue length does an incoming req see
system.mem_ctrl.rdQLenPdf::30                       0                       # What read queue length does an incoming req see
system.mem_ctrl.rdQLenPdf::31                       0                       # What read queue length does an incoming req see
system.mem_ctrl.wrQLenPdf::0                        1                       # What write queue length does an incoming req see
system.mem_ctrl.wrQLenPdf::1                        1                       # What write queue length does an incoming req see
system.mem_ctrl.wrQLenPdf::2                        1                       # What write queue length does an incoming req see
system.mem_ctrl.wrQLenPdf::3                        1                       # What write queue length does an incoming req see
system.mem_ctrl.wrQLenPdf::4                        1                       # What write queue length does an incoming req see
system.mem_ctrl.wrQLenPdf::5                        1                       # What write queue length does an incoming req see
system.mem_ctrl.wrQLenPdf::6                        1                       # What write queue length does an incoming req see
system.mem_ctrl.wrQLenPdf::7                        1                       # What write queue length does an incoming req see
system.mem_ctrl.wrQLenPdf::8                        1                       # What write queue length does an incoming req see
system.mem_ctrl.wrQLenPdf::9                        1                       # What write queue length does an incoming req see
system.mem_ctrl.wrQLenPdf::10                       1                       # What write queue length does an incoming req see
system.mem_ctrl.wrQLenPdf::11                       1                       # What write queue length does an incoming req see
system.mem_ctrl.wrQLenPdf::12                       1                       # What write queue length does an incoming req see
system.mem_ctrl.wrQLenPdf::13                       1                       # What write queue length does an incoming req see
system.mem_ctrl.wrQLenPdf::14                       1                       # What write queue length does an incoming req see
system.mem_ctrl.wrQLenPdf::15                      14                       # What write queue length does an incoming req see
system.mem_ctrl.wrQLenPdf::16                      14                       # What write queue length does an incoming req see
system.mem_ctrl.wrQLenPdf::17                     555                       # What write queue length does an incoming req see
system.mem_ctrl.wrQLenPdf::18                     558                       # What write queue length does an incoming req see
system.mem_ctrl.wrQLenPdf::19                     558                       # What write queue length does an incoming req see
system.mem_ctrl.wrQLenPdf::20                     559                       # What write queue length does an incoming req see
system.mem_ctrl.wrQLenPdf::21                     559                       # What write queue length does an incoming req see
system.mem_ctrl.wrQLenPdf::22                     558                       # What write queue length does an incoming req see
system.mem_ctrl.wrQLenPdf::23                     559                       # What write queue length does an incoming req see
system.mem_ctrl.wrQLenPdf::24                     559                       # What write queue length does an incoming req see
system.mem_ctrl.wrQLenPdf::25                     558                       # What write queue length does an incoming req see
system.mem_ctrl.wrQLenPdf::26                     560                       # What write queue length does an incoming req see
system.mem_ctrl.wrQLenPdf::27                     558                       # What write queue length does an incoming req see
system.mem_ctrl.wrQLenPdf::28                     558                       # What write queue length does an incoming req see
system.mem_ctrl.wrQLenPdf::29                     558                       # What write queue length does an incoming req see
system.mem_ctrl.wrQLenPdf::30                     557                       # What write queue length does an incoming req see
system.mem_ctrl.wrQLenPdf::31                     557                       # What write queue length does an incoming req see
system.mem_ctrl.wrQLenPdf::32                     557                       # What write queue length does an incoming req see
system.mem_ctrl.wrQLenPdf::33                       0                       # What write queue length does an incoming req see
system.mem_ctrl.wrQLenPdf::34                       0                       # What write queue length does an incoming req see
system.mem_ctrl.wrQLenPdf::35                       0                       # What write queue length does an incoming req see
system.mem_ctrl.wrQLenPdf::36                       0                       # What write queue length does an incoming req see
system.mem_ctrl.wrQLenPdf::37                       0                       # What write queue length does an incoming req see
system.mem_ctrl.wrQLenPdf::38                       0                       # What write queue length does an incoming req see
system.mem_ctrl.wrQLenPdf::39                       0                       # What write queue length does an incoming req see
system.mem_ctrl.wrQLenPdf::40                       0                       # What write queue length does an incoming req see
system.mem_ctrl.wrQLenPdf::41                       0                       # What write queue length does an incoming req see
system.mem_ctrl.wrQLenPdf::42                       0                       # What write queue length does an incoming req see
system.mem_ctrl.wrQLenPdf::43                       0                       # What write queue length does an incoming req see
system.mem_ctrl.wrQLenPdf::44                       0                       # What write queue length does an incoming req see
system.mem_ctrl.wrQLenPdf::45                       0                       # What write queue length does an incoming req see
system.mem_ctrl.wrQLenPdf::46                       0                       # What write queue length does an incoming req see
system.mem_ctrl.wrQLenPdf::47                       0                       # What write queue length does an incoming req see
system.mem_ctrl.wrQLenPdf::48                       0                       # What write queue length does an incoming req see
system.mem_ctrl.wrQLenPdf::49                       0                       # What write queue length does an incoming req see
system.mem_ctrl.wrQLenPdf::50                       0                       # What write queue length does an incoming req see
system.mem_ctrl.wrQLenPdf::51                       0                       # What write queue length does an incoming req see
system.mem_ctrl.wrQLenPdf::52                       0                       # What write queue length does an incoming req see
system.mem_ctrl.wrQLenPdf::53                       0                       # What write queue length does an incoming req see
system.mem_ctrl.wrQLenPdf::54                       0                       # What write queue length does an incoming req see
system.mem_ctrl.wrQLenPdf::55                       0                       # What write queue length does an incoming req see
system.mem_ctrl.wrQLenPdf::56                       0                       # What write queue length does an incoming req see
system.mem_ctrl.wrQLenPdf::57                       0                       # What write queue length does an incoming req see
system.mem_ctrl.wrQLenPdf::58                       0                       # What write queue length does an incoming req see
system.mem_ctrl.wrQLenPdf::59                       0                       # What write queue length does an incoming req see
system.mem_ctrl.wrQLenPdf::60                       0                       # What write queue length does an incoming req see
system.mem_ctrl.wrQLenPdf::61                       0                       # What write queue length does an incoming req see
system.mem_ctrl.wrQLenPdf::62                       0                       # What write queue length does an incoming req see
system.mem_ctrl.wrQLenPdf::63                       0                       # What write queue length does an incoming req see
system.mem_ctrl.bytesPerActivate::samples       138763                       # Bytes accessed per row activation
system.mem_ctrl.bytesPerActivate::mean     675.703812                       # Bytes accessed per row activation
system.mem_ctrl.bytesPerActivate::gmean    467.928861                       # Bytes accessed per row activation
system.mem_ctrl.bytesPerActivate::stdev    400.255744                       # Bytes accessed per row activation
system.mem_ctrl.bytesPerActivate::0-127         20750     14.95%     14.95% # Bytes accessed per row activation
system.mem_ctrl.bytesPerActivate::128-255        14933     10.76%     25.72% # Bytes accessed per row activation
system.mem_ctrl.bytesPerActivate::256-383         7841      5.65%     31.37% # Bytes accessed per row activation
system.mem_ctrl.bytesPerActivate::384-511         5600      4.04%     35.40% # Bytes accessed per row activation
system.mem_ctrl.bytesPerActivate::512-639         6048      4.36%     39.76% # Bytes accessed per row activation
system.mem_ctrl.bytesPerActivate::640-767         4347      3.13%     42.89% # Bytes accessed per row activation
system.mem_ctrl.bytesPerActivate::768-895         5657      4.08%     46.97% # Bytes accessed per row activation
system.mem_ctrl.bytesPerActivate::896-1023         5026      3.62%     50.59% # Bytes accessed per row activation
system.mem_ctrl.bytesPerActivate::1024-1151        68561     49.41%    100.00% # Bytes accessed per row activation
system.mem_ctrl.bytesPerActivate::total        138763                       # Bytes accessed per row activation
system.mem_ctrl.rdPerTurnAround::samples          557                       # Reads before turning the bus around for writes
system.mem_ctrl.rdPerTurnAround::mean     2502.578097                       # Reads before turning the bus around for writes
system.mem_ctrl.rdPerTurnAround::stdev    6536.678896                       # Reads before turning the bus around for writes
system.mem_ctrl.rdPerTurnAround::0-4095           495     88.87%     88.87% # Reads before turning the bus around for writes
system.mem_ctrl.rdPerTurnAround::4096-8191           44      7.90%     96.77% # Reads before turning the bus around for writes
system.mem_ctrl.rdPerTurnAround::8192-12287            3      0.54%     97.31% # Reads before turning the bus around for writes
system.mem_ctrl.rdPerTurnAround::12288-16383            6      1.08%     98.38% # Reads before turning the bus around for writes
system.mem_ctrl.rdPerTurnAround::16384-20479            1      0.18%     98.56% # Reads before turning the bus around for writes
system.mem_ctrl.rdPerTurnAround::20480-24575            1      0.18%     98.74% # Reads before turning the bus around for writes
system.mem_ctrl.rdPerTurnAround::24576-28671            1      0.18%     98.92% # Reads before turning the bus around for writes
system.mem_ctrl.rdPerTurnAround::32768-36863            1      0.18%     99.10% # Reads before turning the bus around for writes
system.mem_ctrl.rdPerTurnAround::36864-40959            1      0.18%     99.28% # Reads before turning the bus around for writes
system.mem_ctrl.rdPerTurnAround::45056-49151            1      0.18%     99.46% # Reads before turning the bus around for writes
system.mem_ctrl.rdPerTurnAround::61440-65535            1      0.18%     99.64% # Reads before turning the bus around for writes
system.mem_ctrl.rdPerTurnAround::77824-81919            2      0.36%    100.00% # Reads before turning the bus around for writes
system.mem_ctrl.rdPerTurnAround::total            557                       # Reads before turning the bus around for writes
system.mem_ctrl.wrPerTurnAround::samples          557                       # Writes before turning the bus around for reads
system.mem_ctrl.wrPerTurnAround::mean       16.052065                       # Writes before turning the bus around for reads
system.mem_ctrl.wrPerTurnAround::gmean      16.048485                       # Writes before turning the bus around for reads
system.mem_ctrl.wrPerTurnAround::stdev       0.358580                       # Writes before turning the bus around for reads
system.mem_ctrl.wrPerTurnAround::16               544     97.67%     97.67% # Writes before turning the bus around for reads
system.mem_ctrl.wrPerTurnAround::18                12      2.15%     99.82% # Writes before turning the bus around for reads
system.mem_ctrl.wrPerTurnAround::21                 1      0.18%    100.00% # Writes before turning the bus around for reads
system.mem_ctrl.wrPerTurnAround::total            557                       # Writes before turning the bus around for reads
system.mem_ctrl.bytesReadDRAM                93192000                       # Total number of bytes read from DRAM
system.mem_ctrl.bytesReadWrQ                   964096                       # Total number of bytes read from write queue
system.mem_ctrl.bytesWritten                   572224                       # Total number of bytes written to DRAM
system.mem_ctrl.bytesReadSys                 11549049                       # Total read bytes from the system interface side
system.mem_ctrl.bytesWrittenSys                901225                       # Total written bytes from the system interface side
system.mem_ctrl.avgRdBW                       1176.55                       # Average DRAM read bandwidth in MiByte/s
system.mem_ctrl.avgWrBW                          7.22                       # Average achieved write bandwidth in MiByte/s
system.mem_ctrl.avgRdBWSys                     145.81                       # Average system read bandwidth in MiByte/s
system.mem_ctrl.avgWrBWSys                      11.38                       # Average system write bandwidth in MiByte/s
system.mem_ctrl.peakBW                       12800.00                       # Theoretical peak bandwidth in MiByte/s
system.mem_ctrl.busUtil                          9.25                       # Data bus utilization in percentage
system.mem_ctrl.busUtilRead                      9.19                       # Data bus utilization in percentage for reads
system.mem_ctrl.busUtilWrite                     0.06                       # Data bus utilization in percentage for writes
system.mem_ctrl.totGap                    79207880000                       # Total gap between requests
system.mem_ctrl.avgGap                       49289.87                       # Average gap between requests
system.mem_ctrl.masterReadBytes::.cpu.inst     10345496                       # Per-master bytes read from memory
system.mem_ctrl.masterReadBytes::.cpu.data      1098516                       # Per-master bytes read from memory
system.mem_ctrl.masterWriteBytes::.cpu.data        62111                       # Per-master bytes write to memory
system.mem_ctrl.masterReadRate::.cpu.inst 130611827.294068455696                       # Per-master bytes read from memory rate (Bytes/sec)
system.mem_ctrl.masterReadRate::.cpu.data 13868758.160243926570                       # Per-master bytes read from memory rate (Bytes/sec)
system.mem_ctrl.masterWriteRate::.cpu.data 784151.016544966609                       # Per-master bytes write to memory rate (Bytes/sec)
system.mem_ctrl.masterReadAccesses::.cpu.inst      1293187                       # Per-master read serviced memory accesses
system.mem_ctrl.masterReadAccesses::.cpu.data       178002                       # Per-master read serviced memory accesses
system.mem_ctrl.masterWriteAccesses::.cpu.data       135792                       # Per-master write serviced memory accesses
system.mem_ctrl.masterReadTotalLat::.cpu.inst  27959523750                       # Per-master read total memory access latency
system.mem_ctrl.masterReadTotalLat::.cpu.data   4063573750                       # Per-master read total memory access latency
system.mem_ctrl.masterWriteTotalLat::.cpu.data 1925076986000                       # Per-master write total memory access latency
system.mem_ctrl.masterReadAvgLat::.cpu.inst     21620.63                       # Per-master read average memory access latency
system.mem_ctrl.masterReadAvgLat::.cpu.data     22828.81                       # Per-master read average memory access latency
system.mem_ctrl.masterWriteAvgLat::.cpu.data  14176659.79                       # Per-master write average memory access latency
system.mem_ctrl.pageHitRate                     90.53                       # Row buffer hit rate, read and write combined
system.mem_ctrl.rank1.actEnergy             469740600                       # Energy for activate commands per rank (pJ)
system.mem_ctrl.rank1.preEnergy             249673050                       # Energy for precharge commands per rank (pJ)
system.mem_ctrl.rank1.readEnergy           5168960160                       # Energy for read commands per rank (pJ)
system.mem_ctrl.rank1.writeEnergy            22519080                       # Energy for write commands per rank (pJ)
system.mem_ctrl.rank1.refreshEnergy      6252118080.000001                       # Energy for refresh commands per rank (pJ)
system.mem_ctrl.rank1.actBackEnergy       28102325820                       # Energy for active background per rank (pJ)
system.mem_ctrl.rank1.preBackEnergy        6750739200                       # Energy for precharge background per rank (pJ)
system.mem_ctrl.rank1.actPowerDownEnergy            0                       # Energy for active power-down per rank (pJ)
system.mem_ctrl.rank1.prePowerDownEnergy            0                       # Energy for precharge power-down per rank (pJ)
system.mem_ctrl.rank1.selfRefreshEnergy             0                       # Energy for self refresh per rank (pJ)
system.mem_ctrl.rank1.totalEnergy         47016075990                       # Total energy per rank (pJ)
system.mem_ctrl.rank1.averagePower         593.577688                       # Core power per rank (mW)
system.mem_ctrl.rank1.totalIdleTime                 0                       # Total Idle time Per DRAM Rank
system.mem_ctrl.rank1.memoryStateTime::IDLE  17264880500                       # Time in different power states
system.mem_ctrl.rank1.memoryStateTime::REF   2644720000                       # Time in different power states
system.mem_ctrl.rank1.memoryStateTime::SREF            0                       # Time in different power states
system.mem_ctrl.rank1.memoryStateTime::PRE_PDN            0                       # Time in different power states
system.mem_ctrl.rank1.memoryStateTime::ACT  59298356500                       # Time in different power states
system.mem_ctrl.rank1.memoryStateTime::ACT_PDN            0                       # Time in different power states
system.mem_ctrl.rank0.actEnergy             521041500                       # Energy for activate commands per rank (pJ)
system.mem_ctrl.rank0.preEnergy             276932535                       # Energy for precharge commands per rank (pJ)
system.mem_ctrl.rank0.readEnergy           5227772340                       # Energy for read commands per rank (pJ)
system.mem_ctrl.rank0.writeEnergy            24152940                       # Energy for write commands per rank (pJ)
system.mem_ctrl.rank0.refreshEnergy      6252118080.000001                       # Energy for refresh commands per rank (pJ)
system.mem_ctrl.rank0.actBackEnergy       32131541250                       # Energy for active background per rank (pJ)
system.mem_ctrl.rank0.preBackEnergy        3357715680                       # Energy for precharge background per rank (pJ)
system.mem_ctrl.rank0.actPowerDownEnergy            0                       # Energy for active power-down per rank (pJ)
system.mem_ctrl.rank0.prePowerDownEnergy            0                       # Energy for precharge power-down per rank (pJ)
system.mem_ctrl.rank0.selfRefreshEnergy             0                       # Energy for self refresh per rank (pJ)
system.mem_ctrl.rank0.totalEnergy         47791274325                       # Total energy per rank (pJ)
system.mem_ctrl.rank0.averagePower         603.364563                       # Core power per rank (mW)
system.mem_ctrl.rank0.totalIdleTime                 0                       # Total Idle time Per DRAM Rank
system.mem_ctrl.rank0.memoryStateTime::IDLE   8313412250                       # Time in different power states
system.mem_ctrl.rank0.memoryStateTime::REF   2644720000                       # Time in different power states
system.mem_ctrl.rank0.memoryStateTime::SREF            0                       # Time in different power states
system.mem_ctrl.rank0.memoryStateTime::PRE_PDN            0                       # Time in different power states
system.mem_ctrl.rank0.memoryStateTime::ACT  68249824750                       # Time in different power states
system.mem_ctrl.rank0.memoryStateTime::ACT_PDN            0                       # Time in different power states
system.mem_ctrl.power_state.pwrStateResidencyTicks::UNDEFINED  79207957000                       # Cumulative time (in ticks) in various power states
system.cache.blocked_cycles::no_mshrs               0                       # number of cycles access was blocked
system.cache.blocked_cycles::no_targets             0                       # number of cycles access was blocked
system.cache.blocked::no_mshrs                      0                       # number of cycles access was blocked
system.cache.blocked::no_targets                    0                       # number of cycles access was blocked
system.cache.avg_blocked_cycles::no_mshrs          nan                       # average number of cycles each access was blocked
system.cache.avg_blocked_cycles::no_targets          nan                       # average number of cycles each access was blocked
system.cache.replacements                           0                       # number of replacements
system.cache.power_state.pwrStateResidencyTicks::UNDEFINED  79207957000                       # Cumulative time (in ticks) in various power states
system.cache.tags.tagsinuse                         0                       # Cycle average of tags in use
system.cache.tags.total_refs                        0                       # Total number of references to valid blocks.
system.cache.tags.sampled_refs                      0                       # Sample count of references to valid blocks.
system.cache.tags.avg_refs                        nan                       # Average number of references to valid blocks.
system.cache.tags.warmup_cycle                      0                       # Cycle when the warmup percentage was hit.
system.cache.tags.tag_accesses                      0                       # Number of tag accesses
system.cache.tags.data_accesses                     0                       # Number of data accesses
system.cache.tags.power_state.pwrStateResidencyTicks::UNDEFINED  79207957000                       # Cumulative time (in ticks) in various power states
system.clk_domain.clock                          1000                       # Clock period in ticks
system.clk_domain.voltage_domain.voltage            1                       # Voltage in Volts
system.cachebus.snoops                              0                       # Total snoops (count)
system.cachebus.snoopTraffic                        0                       # Total snoop traffic (bytes)
system.cachebus.snoop_fanout::samples               0                       # Request fanout histogram
system.cachebus.snoop_fanout::mean                nan                       # Request fanout histogram
system.cachebus.snoop_fanout::stdev               nan                       # Request fanout histogram
system.cachebus.snoop_fanout::underflows            0                       # Request fanout histogram
system.cachebus.snoop_fanout::0                     0                       # Request fanout histogram
system.cachebus.snoop_fanout::overflows             0                       # Request fanout histogram
system.cachebus.snoop_fanout::min_value             0                       # Request fanout histogram
system.cachebus.snoop_fanout::max_value             0                       # Request fanout histogram
system.cachebus.snoop_fanout::total                 0                       # Request fanout histogram
system.cachebus.power_state.pwrStateResidencyTicks::UNDEFINED  79207957000                       # Cumulative time (in ticks) in various power states
system.cpu.dtb.walker.power_state.pwrStateResidencyTicks::UNDEFINED  79207957000                       # Cumulative time (in ticks) in various power states
system.cpu.interrupts.clk_domain.clock          16000                       # Clock period in ticks
system.cpu.itb.walker.power_state.pwrStateResidencyTicks::UNDEFINED  79207957000                       # Cumulative time (in ticks) in various power states
system.cpu.power_state.numTransitions               1                       # Number of power state transitions
system.cpu.power_state.pwrStateResidencyTicks::ON  79207957000                       # Cumulative time (in ticks) in various power states

---------- End Simulation Statistics   ----------
