
---------- Begin Simulation Statistics ----------
final_tick                                 4033996000                       # Number of ticks from beginning of simulation (restored from checkpoints and never reset)
host_inst_rate                                 144388                       # Simulator instruction rate (inst/s)
host_mem_usage                               34288492                       # Number of bytes of host memory used
host_op_rate                                   290811                       # Simulator op (including micro ops) rate (op/s)
host_seconds                                     6.95                       # Real time elapsed on the host
host_tick_rate                              580695709                       # Simulator tick rate (ticks/s)
sim_freq                                 1000000000000                       # Frequency of simulated ticks
sim_insts                                     1002999                       # Number of instructions simulated
sim_ops                                       2020199                       # Number of ops (including micro ops) simulated
sim_seconds                                  0.004034                       # Number of seconds simulated
sim_ticks                                  4033996000                       # Number of ticks simulated
system.cpu.Branches                            240618                       # Number of branches fetched
system.cpu.committedInsts                     1002999                       # Number of instructions committed
system.cpu.committedOps                       2020199                       # Number of ops (including micro ops) committed
system.cpu.dtb.rdAccesses                      178450                       # TLB accesses on read requests
system.cpu.dtb.rdMisses                           266                       # TLB misses on read requests
system.cpu.dtb.wrAccesses                      135882                       # TLB accesses on write requests
system.cpu.dtb.wrMisses                           203                       # TLB misses on write requests
system.cpu.idle_fraction                            0                       # Percentage of idle cycles
system.cpu.itb.rdAccesses                           0                       # TLB accesses on read requests
system.cpu.itb.rdMisses                             0                       # TLB misses on read requests
system.cpu.itb.wrAccesses                     1297454                       # TLB accesses on write requests
system.cpu.itb.wrMisses                           178                       # TLB misses on write requests
system.cpu.not_idle_fraction                        1                       # Percentage of non-idle cycles
system.cpu.numCycles                          4033985                       # number of cpu cycles simulated
system.cpu.numWorkItemsCompleted                    0                       # number of work items this cpu completed
system.cpu.numWorkItemsStarted                      0                       # number of work items this cpu started
system.cpu.num_busy_cycles                    4033985                       # Number of busy cycles
system.cpu.num_cc_register_reads              1579059                       # number of times the CC registers were read
system.cpu.num_cc_register_writes              732123                       # number of times the CC registers were written
system.cpu.num_conditional_control_insts       202926                       # number of instructions that are conditional controls
system.cpu.num_fp_alu_accesses                  91342                       # Number of float alu accesses
system.cpu.num_fp_insts                         91342                       # number of float instructions
system.cpu.num_fp_register_reads               145075                       # number of times the floating registers were read
system.cpu.num_fp_register_writes               65447                       # number of times the floating registers were written
system.cpu.num_func_calls                       28341                       # number of times a function call or return occured
system.cpu.num_idle_cycles                          0                       # Number of idle cycles
system.cpu.num_int_alu_accesses               1943188                       # Number of integer alu accesses
system.cpu.num_int_insts                      1943188                       # number of integer instructions
system.cpu.num_int_register_reads             3546721                       # number of times the integer registers were read
system.cpu.num_int_register_writes            1572012                       # number of times the integer registers were written
system.cpu.num_load_insts                      177584                       # Number of load instructions
system.cpu.num_mem_refs                        313448                       # number of memory refs
system.cpu.num_store_insts                     135864                       # Number of store instructions
system.cpu.num_vec_alu_accesses                     0                       # Number of vector alu accesses
system.cpu.num_vec_insts                            0                       # number of vector instructions
system.cpu.num_vec_register_reads                   0                       # number of times the vector registers were read
system.cpu.num_vec_register_writes                  0                       # number of times the vector registers were written
system.cpu.op_class::No_OpClass                 23148      1.15%      1.15% # Class of executed instruction
system.cpu.op_class::IntAlu                   1619075     80.14%     81.29% # Class of executed instruction
system.cpu.op_class::IntMult                     1189      0.06%     81.35% # Class of executed instruction
system.cpu.op_class::IntDiv                      1176      0.06%     81.40% # Class of executed instruction
system.cpu.op_class::FloatAdd                     782      0.04%     81.44% # Class of executed instruction
system.cpu.op_class::FloatCmp                       0      0.00%     81.44% # Class of executed instruction
system.cpu.op_class::FloatCvt                       0      0.00%     81.44% # Class of executed instruction
system.cpu.op_class::FloatMult                      0      0.00%     81.44% # Class of executed instruction
system.cpu.op_class::FloatMultAcc                   0      0.00%     81.44% # Class of executed instruction
system.cpu.op_class::FloatDiv                       0      0.00%     81.44% # Class of executed instruction
system.cpu.op_class::FloatMisc                      0      0.00%     81.44% # Class of executed instruction
system.cpu.op_class::FloatSqrt                      0      0.00%     81.44% # Class of executed instruction
system.cpu.op_class::SimdAdd                     1870      0.09%     81.53% # Class of executed instruction
system.cpu.op_class::SimdAddAcc                     0      0.00%     81.53% # Class of executed instruction
system.cpu.op_class::SimdAlu                    30975      1.53%     83.07% # Class of executed instruction
system.cpu.op_class::SimdCmp                       50      0.00%     83.07% # Class of executed instruction
system.cpu.op_class::SimdCvt                    12648      0.63%     83.70% # Class of executed instruction
system.cpu.op_class::SimdMisc                   15123      0.75%     84.45% # Class of executed instruction
system.cpu.op_class::SimdMult                       0      0.00%     84.45% # Class of executed instruction
system.cpu.op_class::SimdMultAcc                    0      0.00%     84.45% # Class of executed instruction
system.cpu.op_class::SimdShift                    771      0.04%     84.48% # Class of executed instruction
system.cpu.op_class::SimdShiftAcc                   0      0.00%     84.48% # Class of executed instruction
system.cpu.op_class::SimdDiv                        0      0.00%     84.48% # Class of executed instruction
system.cpu.op_class::SimdSqrt                       0      0.00%     84.48% # Class of executed instruction
system.cpu.op_class::SimdFloatAdd                   2      0.00%     84.48% # Class of executed instruction
system.cpu.op_class::SimdFloatAlu                   0      0.00%     84.48% # Class of executed instruction
system.cpu.op_class::SimdFloatCmp                   2      0.00%     84.48% # Class of executed instruction
system.cpu.op_class::SimdFloatCvt                  17      0.00%     84.48% # Class of executed instruction
system.cpu.op_class::SimdFloatDiv                   1      0.00%     84.48% # Class of executed instruction
system.cpu.op_class::SimdFloatMisc                  0      0.00%     84.48% # Class of executed instruction
system.cpu.op_class::SimdFloatMult                 12      0.00%     84.48% # Class of executed instruction
system.cpu.op_class::SimdFloatMultAcc               0      0.00%     84.48% # Class of executed instruction
system.cpu.op_class::SimdFloatSqrt                  0      0.00%     84.48% # Class of executed instruction
system.cpu.op_class::SimdReduceAdd                  0      0.00%     84.48% # Class of executed instruction
system.cpu.op_class::SimdReduceAlu                  0      0.00%     84.48% # Class of executed instruction
system.cpu.op_class::SimdReduceCmp                  0      0.00%     84.48% # Class of executed instruction
system.cpu.op_class::SimdFloatReduceAdd             0      0.00%     84.48% # Class of executed instruction
system.cpu.op_class::SimdFloatReduceCmp             0      0.00%     84.48% # Class of executed instruction
system.cpu.op_class::SimdAes                        0      0.00%     84.48% # Class of executed instruction
system.cpu.op_class::SimdAesMix                     0      0.00%     84.48% # Class of executed instruction
system.cpu.op_class::SimdSha1Hash                   0      0.00%     84.48% # Class of executed instruction
system.cpu.op_class::SimdSha1Hash2                  0      0.00%     84.48% # Class of executed instruction
system.cpu.op_class::SimdSha256Hash                 0      0.00%     84.48% # Class of executed instruction
system.cpu.op_class::SimdSha256Hash2                0      0.00%     84.48% # Class of executed instruction
system.cpu.op_class::SimdShaSigma2                  0      0.00%     84.48% # Class of executed instruction
system.cpu.op_class::SimdShaSigma3                  0      0.00%     84.48% # Class of executed instruction
system.cpu.op_class::SimdPredAlu                    0      0.00%     84.48% # Class of executed instruction
system.cpu.op_class::MemRead                   165560      8.19%     92.68% # Class of executed instruction
system.cpu.op_class::MemWrite                  120253      5.95%     98.63% # Class of executed instruction
system.cpu.op_class::FloatMemRead               12024      0.60%     99.23% # Class of executed instruction
system.cpu.op_class::FloatMemWrite              15611      0.77%    100.00% # Class of executed instruction
system.cpu.op_class::IprAccess                      0      0.00%    100.00% # Class of executed instruction
system.cpu.op_class::InstPrefetch                   0      0.00%    100.00% # Class of executed instruction
system.cpu.op_class::total                    2020289                       # Class of executed instruction
system.cpu.workload.numSyscalls                    31                       # Number of system calls
system.dynamic_cache.flushTicks                     0                       # Ticks taken to flush
system.dynamic_cache.numFlushes                     0                       # Number of Flushes Taken
system.cache_small.demand_hits::.cpu.inst         3549                       # number of demand (read+write) hits
system.cache_small.demand_hits::.cpu.data         1462                       # number of demand (read+write) hits
system.cache_small.demand_hits::total            5011                       # number of demand (read+write) hits
system.cache_small.overall_hits::.cpu.inst         3549                       # number of overall hits
system.cache_small.overall_hits::.cpu.data         1462                       # number of overall hits
system.cache_small.overall_hits::total           5011                       # number of overall hits
system.cache_small.demand_misses::.cpu.inst         2716                       # number of demand (read+write) misses
system.cache_small.demand_misses::.cpu.data         5159                       # number of demand (read+write) misses
system.cache_small.demand_misses::total          7875                       # number of demand (read+write) misses
system.cache_small.overall_misses::.cpu.inst         2716                       # number of overall misses
system.cache_small.overall_misses::.cpu.data         5159                       # number of overall misses
system.cache_small.overall_misses::total         7875                       # number of overall misses
system.cache_small.demand_miss_latency::.cpu.inst    178324000                       # number of demand (read+write) miss cycles
system.cache_small.demand_miss_latency::.cpu.data    319048000                       # number of demand (read+write) miss cycles
system.cache_small.demand_miss_latency::total    497372000                       # number of demand (read+write) miss cycles
system.cache_small.overall_miss_latency::.cpu.inst    178324000                       # number of overall miss cycles
system.cache_small.overall_miss_latency::.cpu.data    319048000                       # number of overall miss cycles
system.cache_small.overall_miss_latency::total    497372000                       # number of overall miss cycles
system.cache_small.demand_accesses::.cpu.inst         6265                       # number of demand (read+write) accesses
system.cache_small.demand_accesses::.cpu.data         6621                       # number of demand (read+write) accesses
system.cache_small.demand_accesses::total        12886                       # number of demand (read+write) accesses
system.cache_small.overall_accesses::.cpu.inst         6265                       # number of overall (read+write) accesses
system.cache_small.overall_accesses::.cpu.data         6621                       # number of overall (read+write) accesses
system.cache_small.overall_accesses::total        12886                       # number of overall (read+write) accesses
system.cache_small.demand_miss_rate::.cpu.inst     0.433520                       # miss rate for demand accesses
system.cache_small.demand_miss_rate::.cpu.data     0.779187                       # miss rate for demand accesses
system.cache_small.demand_miss_rate::total     0.611128                       # miss rate for demand accesses
system.cache_small.overall_miss_rate::.cpu.inst     0.433520                       # miss rate for overall accesses
system.cache_small.overall_miss_rate::.cpu.data     0.779187                       # miss rate for overall accesses
system.cache_small.overall_miss_rate::total     0.611128                       # miss rate for overall accesses
system.cache_small.demand_avg_miss_latency::.cpu.inst 65656.848306                       # average overall miss latency
system.cache_small.demand_avg_miss_latency::.cpu.data 61842.992828                       # average overall miss latency
system.cache_small.demand_avg_miss_latency::total 63158.349206                       # average overall miss latency
system.cache_small.overall_avg_miss_latency::.cpu.inst 65656.848306                       # average overall miss latency
system.cache_small.overall_avg_miss_latency::.cpu.data 61842.992828                       # average overall miss latency
system.cache_small.overall_avg_miss_latency::total 63158.349206                       # average overall miss latency
system.cache_small.blocked_cycles::no_mshrs            0                       # number of cycles access was blocked
system.cache_small.blocked_cycles::no_targets            0                       # number of cycles access was blocked
system.cache_small.blocked::no_mshrs                0                       # number of cycles access was blocked
system.cache_small.blocked::no_targets              0                       # number of cycles access was blocked
system.cache_small.avg_blocked_cycles::no_mshrs          nan                       # average number of cycles each access was blocked
system.cache_small.avg_blocked_cycles::no_targets          nan                       # average number of cycles each access was blocked
system.cache_small.writebacks::.writebacks         3027                       # number of writebacks
system.cache_small.writebacks::total             3027                       # number of writebacks
system.cache_small.demand_mshr_misses::.cpu.inst         2716                       # number of demand (read+write) MSHR misses
system.cache_small.demand_mshr_misses::.cpu.data         5159                       # number of demand (read+write) MSHR misses
system.cache_small.demand_mshr_misses::total         7875                       # number of demand (read+write) MSHR misses
system.cache_small.overall_mshr_misses::.cpu.inst         2716                       # number of overall MSHR misses
system.cache_small.overall_mshr_misses::.cpu.data         5159                       # number of overall MSHR misses
system.cache_small.overall_mshr_misses::total         7875                       # number of overall MSHR misses
system.cache_small.demand_mshr_miss_latency::.cpu.inst    172892000                       # number of demand (read+write) MSHR miss cycles
system.cache_small.demand_mshr_miss_latency::.cpu.data    308730000                       # number of demand (read+write) MSHR miss cycles
system.cache_small.demand_mshr_miss_latency::total    481622000                       # number of demand (read+write) MSHR miss cycles
system.cache_small.overall_mshr_miss_latency::.cpu.inst    172892000                       # number of overall MSHR miss cycles
system.cache_small.overall_mshr_miss_latency::.cpu.data    308730000                       # number of overall MSHR miss cycles
system.cache_small.overall_mshr_miss_latency::total    481622000                       # number of overall MSHR miss cycles
system.cache_small.demand_mshr_miss_rate::.cpu.inst     0.433520                       # mshr miss rate for demand accesses
system.cache_small.demand_mshr_miss_rate::.cpu.data     0.779187                       # mshr miss rate for demand accesses
system.cache_small.demand_mshr_miss_rate::total     0.611128                       # mshr miss rate for demand accesses
system.cache_small.overall_mshr_miss_rate::.cpu.inst     0.433520                       # mshr miss rate for overall accesses
system.cache_small.overall_mshr_miss_rate::.cpu.data     0.779187                       # mshr miss rate for overall accesses
system.cache_small.overall_mshr_miss_rate::total     0.611128                       # mshr miss rate for overall accesses
system.cache_small.demand_avg_mshr_miss_latency::.cpu.inst 63656.848306                       # average overall mshr miss latency
system.cache_small.demand_avg_mshr_miss_latency::.cpu.data 59842.992828                       # average overall mshr miss latency
system.cache_small.demand_avg_mshr_miss_latency::total 61158.349206                       # average overall mshr miss latency
system.cache_small.overall_avg_mshr_miss_latency::.cpu.inst 63656.848306                       # average overall mshr miss latency
system.cache_small.overall_avg_mshr_miss_latency::.cpu.data 59842.992828                       # average overall mshr miss latency
system.cache_small.overall_avg_mshr_miss_latency::total 61158.349206                       # average overall mshr miss latency
system.cache_small.replacements                  7050                       # number of replacements
system.cache_small.ReadReq_hits::.cpu.inst         3549                       # number of ReadReq hits
system.cache_small.ReadReq_hits::.cpu.data         1462                       # number of ReadReq hits
system.cache_small.ReadReq_hits::total           5011                       # number of ReadReq hits
system.cache_small.ReadReq_misses::.cpu.inst         2716                       # number of ReadReq misses
system.cache_small.ReadReq_misses::.cpu.data         5159                       # number of ReadReq misses
system.cache_small.ReadReq_misses::total         7875                       # number of ReadReq misses
system.cache_small.ReadReq_miss_latency::.cpu.inst    178324000                       # number of ReadReq miss cycles
system.cache_small.ReadReq_miss_latency::.cpu.data    319048000                       # number of ReadReq miss cycles
system.cache_small.ReadReq_miss_latency::total    497372000                       # number of ReadReq miss cycles
system.cache_small.ReadReq_accesses::.cpu.inst         6265                       # number of ReadReq accesses(hits+misses)
system.cache_small.ReadReq_accesses::.cpu.data         6621                       # number of ReadReq accesses(hits+misses)
system.cache_small.ReadReq_accesses::total        12886                       # number of ReadReq accesses(hits+misses)
system.cache_small.ReadReq_miss_rate::.cpu.inst     0.433520                       # miss rate for ReadReq accesses
system.cache_small.ReadReq_miss_rate::.cpu.data     0.779187                       # miss rate for ReadReq accesses
system.cache_small.ReadReq_miss_rate::total     0.611128                       # miss rate for ReadReq accesses
system.cache_small.ReadReq_avg_miss_latency::.cpu.inst 65656.848306                       # average ReadReq miss latency
system.cache_small.ReadReq_avg_miss_latency::.cpu.data 61842.992828                       # average ReadReq miss latency
system.cache_small.ReadReq_avg_miss_latency::total 63158.349206                       # average ReadReq miss latency
system.cache_small.ReadReq_mshr_misses::.cpu.inst         2716                       # number of ReadReq MSHR misses
system.cache_small.ReadReq_mshr_misses::.cpu.data         5159                       # number of ReadReq MSHR misses
system.cache_small.ReadReq_mshr_misses::total         7875                       # number of ReadReq MSHR misses
system.cache_small.ReadReq_mshr_miss_latency::.cpu.inst    172892000                       # number of ReadReq MSHR miss cycles
system.cache_small.ReadReq_mshr_miss_latency::.cpu.data    308730000                       # number of ReadReq MSHR miss cycles
system.cache_small.ReadReq_mshr_miss_latency::total    481622000                       # number of ReadReq MSHR miss cycles
system.cache_small.ReadReq_mshr_miss_rate::.cpu.inst     0.433520                       # mshr miss rate for ReadReq accesses
system.cache_small.ReadReq_mshr_miss_rate::.cpu.data     0.779187                       # mshr miss rate for ReadReq accesses
system.cache_small.ReadReq_mshr_miss_rate::total     0.611128                       # mshr miss rate for ReadReq accesses
system.cache_small.ReadReq_avg_mshr_miss_latency::.cpu.inst 63656.848306                       # average ReadReq mshr miss latency
system.cache_small.ReadReq_avg_mshr_miss_latency::.cpu.data 59842.992828                       # average ReadReq mshr miss latency
system.cache_small.ReadReq_avg_mshr_miss_latency::total 61158.349206                       # average ReadReq mshr miss latency
system.cache_small.WritebackDirty_hits::.writebacks         4606                       # number of WritebackDirty hits
system.cache_small.WritebackDirty_hits::total         4606                       # number of WritebackDirty hits
system.cache_small.WritebackDirty_accesses::.writebacks         4606                       # number of WritebackDirty accesses(hits+misses)
system.cache_small.WritebackDirty_accesses::total         4606                       # number of WritebackDirty accesses(hits+misses)
system.cache_small.power_state.pwrStateResidencyTicks::UNDEFINED   4033996000                       # Cumulative time (in ticks) in various power states
system.cache_small.tags.tagsinuse         1807.440014                       # Cycle average of tags in use
system.cache_small.tags.total_refs              12830                       # Total number of references to valid blocks.
system.cache_small.tags.sampled_refs             7050                       # Sample count of references to valid blocks.
system.cache_small.tags.avg_refs             1.819858                       # Average number of references to valid blocks.
system.cache_small.tags.warmup_cycle            76000                       # Cycle when the warmup percentage was hit.
system.cache_small.tags.occ_blocks::.writebacks   150.490910                       # Average occupied blocks per requestor
system.cache_small.tags.occ_blocks::.cpu.inst   399.330389                       # Average occupied blocks per requestor
system.cache_small.tags.occ_blocks::.cpu.data  1257.618715                       # Average occupied blocks per requestor
system.cache_small.tags.occ_percent::.writebacks     0.073482                       # Average percentage of cache occupancy
system.cache_small.tags.occ_percent::.cpu.inst     0.194986                       # Average percentage of cache occupancy
system.cache_small.tags.occ_percent::.cpu.data     0.614072                       # Average percentage of cache occupancy
system.cache_small.tags.occ_percent::total     0.882539                       # Average percentage of cache occupancy
system.cache_small.tags.occ_task_id_blocks::1024         2019                       # Occupied blocks per task id
system.cache_small.tags.age_task_id_blocks_1024::2          249                       # Occupied blocks per task id
system.cache_small.tags.age_task_id_blocks_1024::3         1770                       # Occupied blocks per task id
system.cache_small.tags.occ_task_id_percent::1024     0.985840                       # Percentage of cache occupancy per task id
system.cache_small.tags.tag_accesses            26561                       # Number of tag accesses
system.cache_small.tags.data_accesses           26561                       # Number of data accesses
system.cache_small.tags.power_state.pwrStateResidencyTicks::UNDEFINED   4033996000                       # Cumulative time (in ticks) in various power states
system.icache.demand_hits::.cpu.inst          1287143                       # number of demand (read+write) hits
system.icache.demand_hits::total              1287143                       # number of demand (read+write) hits
system.icache.overall_hits::.cpu.inst         1287143                       # number of overall hits
system.icache.overall_hits::total             1287143                       # number of overall hits
system.icache.demand_misses::.cpu.inst          10311                       # number of demand (read+write) misses
system.icache.demand_misses::total              10311                       # number of demand (read+write) misses
system.icache.overall_misses::.cpu.inst         10311                       # number of overall misses
system.icache.overall_misses::total             10311                       # number of overall misses
system.icache.demand_miss_latency::.cpu.inst    352830000                       # number of demand (read+write) miss cycles
system.icache.demand_miss_latency::total    352830000                       # number of demand (read+write) miss cycles
system.icache.overall_miss_latency::.cpu.inst    352830000                       # number of overall miss cycles
system.icache.overall_miss_latency::total    352830000                       # number of overall miss cycles
system.icache.demand_accesses::.cpu.inst      1297454                       # number of demand (read+write) accesses
system.icache.demand_accesses::total          1297454                       # number of demand (read+write) accesses
system.icache.overall_accesses::.cpu.inst      1297454                       # number of overall (read+write) accesses
system.icache.overall_accesses::total         1297454                       # number of overall (read+write) accesses
system.icache.demand_miss_rate::.cpu.inst     0.007947                       # miss rate for demand accesses
system.icache.demand_miss_rate::total        0.007947                       # miss rate for demand accesses
system.icache.overall_miss_rate::.cpu.inst     0.007947                       # miss rate for overall accesses
system.icache.overall_miss_rate::total       0.007947                       # miss rate for overall accesses
system.icache.demand_avg_miss_latency::.cpu.inst 34218.795461                       # average overall miss latency
system.icache.demand_avg_miss_latency::total 34218.795461                       # average overall miss latency
system.icache.overall_avg_miss_latency::.cpu.inst 34218.795461                       # average overall miss latency
system.icache.overall_avg_miss_latency::total 34218.795461                       # average overall miss latency
system.icache.blocked_cycles::no_mshrs              0                       # number of cycles access was blocked
system.icache.blocked_cycles::no_targets            0                       # number of cycles access was blocked
system.icache.blocked::no_mshrs                     0                       # number of cycles access was blocked
system.icache.blocked::no_targets                   0                       # number of cycles access was blocked
system.icache.avg_blocked_cycles::no_mshrs          nan                       # average number of cycles each access was blocked
system.icache.avg_blocked_cycles::no_targets          nan                       # average number of cycles each access was blocked
system.icache.demand_mshr_misses::.cpu.inst        10311                       # number of demand (read+write) MSHR misses
system.icache.demand_mshr_misses::total         10311                       # number of demand (read+write) MSHR misses
system.icache.overall_mshr_misses::.cpu.inst        10311                       # number of overall MSHR misses
system.icache.overall_mshr_misses::total        10311                       # number of overall MSHR misses
system.icache.demand_mshr_miss_latency::.cpu.inst    332208000                       # number of demand (read+write) MSHR miss cycles
system.icache.demand_mshr_miss_latency::total    332208000                       # number of demand (read+write) MSHR miss cycles
system.icache.overall_mshr_miss_latency::.cpu.inst    332208000                       # number of overall MSHR miss cycles
system.icache.overall_mshr_miss_latency::total    332208000                       # number of overall MSHR miss cycles
system.icache.demand_mshr_miss_rate::.cpu.inst     0.007947                       # mshr miss rate for demand accesses
system.icache.demand_mshr_miss_rate::total     0.007947                       # mshr miss rate for demand accesses
system.icache.overall_mshr_miss_rate::.cpu.inst     0.007947                       # mshr miss rate for overall accesses
system.icache.overall_mshr_miss_rate::total     0.007947                       # mshr miss rate for overall accesses
system.icache.demand_avg_mshr_miss_latency::.cpu.inst 32218.795461                       # average overall mshr miss latency
system.icache.demand_avg_mshr_miss_latency::total 32218.795461                       # average overall mshr miss latency
system.icache.overall_avg_mshr_miss_latency::.cpu.inst 32218.795461                       # average overall mshr miss latency
system.icache.overall_avg_mshr_miss_latency::total 32218.795461                       # average overall mshr miss latency
system.icache.replacements                      10055                       # number of replacements
system.icache.ReadReq_hits::.cpu.inst         1287143                       # number of ReadReq hits
system.icache.ReadReq_hits::total             1287143                       # number of ReadReq hits
system.icache.ReadReq_misses::.cpu.inst         10311                       # number of ReadReq misses
system.icache.ReadReq_misses::total             10311                       # number of ReadReq misses
system.icache.ReadReq_miss_latency::.cpu.inst    352830000                       # number of ReadReq miss cycles
system.icache.ReadReq_miss_latency::total    352830000                       # number of ReadReq miss cycles
system.icache.ReadReq_accesses::.cpu.inst      1297454                       # number of ReadReq accesses(hits+misses)
system.icache.ReadReq_accesses::total         1297454                       # number of ReadReq accesses(hits+misses)
system.icache.ReadReq_miss_rate::.cpu.inst     0.007947                       # miss rate for ReadReq accesses
system.icache.ReadReq_miss_rate::total       0.007947                       # miss rate for ReadReq accesses
system.icache.ReadReq_avg_miss_latency::.cpu.inst 34218.795461                       # average ReadReq miss latency
system.icache.ReadReq_avg_miss_latency::total 34218.795461                       # average ReadReq miss latency
system.icache.ReadReq_mshr_misses::.cpu.inst        10311                       # number of ReadReq MSHR misses
system.icache.ReadReq_mshr_misses::total        10311                       # number of ReadReq MSHR misses
system.icache.ReadReq_mshr_miss_latency::.cpu.inst    332208000                       # number of ReadReq MSHR miss cycles
system.icache.ReadReq_mshr_miss_latency::total    332208000                       # number of ReadReq MSHR miss cycles
system.icache.ReadReq_mshr_miss_rate::.cpu.inst     0.007947                       # mshr miss rate for ReadReq accesses
system.icache.ReadReq_mshr_miss_rate::total     0.007947                       # mshr miss rate for ReadReq accesses
system.icache.ReadReq_avg_mshr_miss_latency::.cpu.inst 32218.795461                       # average ReadReq mshr miss latency
system.icache.ReadReq_avg_mshr_miss_latency::total 32218.795461                       # average ReadReq mshr miss latency
system.icache.power_state.pwrStateResidencyTicks::UNDEFINED   4033996000                       # Cumulative time (in ticks) in various power states
system.icache.tags.tagsinuse               244.784984                       # Cycle average of tags in use
system.icache.tags.total_refs                  815513                       # Total number of references to valid blocks.
system.icache.tags.sampled_refs                 10055                       # Sample count of references to valid blocks.
system.icache.tags.avg_refs                 81.105221                       # Average number of references to valid blocks.
system.icache.tags.warmup_cycle                 82000                       # Cycle when the warmup percentage was hit.
system.icache.tags.occ_blocks::.cpu.inst   244.784984                       # Average occupied blocks per requestor
system.icache.tags.occ_percent::.cpu.inst     0.956191                       # Average percentage of cache occupancy
system.icache.tags.occ_percent::total        0.956191                       # Average percentage of cache occupancy
system.icache.tags.occ_task_id_blocks::1024          256                       # Occupied blocks per task id
system.icache.tags.age_task_id_blocks_1024::2           57                       # Occupied blocks per task id
system.icache.tags.age_task_id_blocks_1024::3          199                       # Occupied blocks per task id
system.icache.tags.occ_task_id_percent::1024            1                       # Percentage of cache occupancy per task id
system.icache.tags.tag_accesses               1307765                       # Number of tag accesses
system.icache.tags.data_accesses              1307765                       # Number of data accesses
system.icache.tags.power_state.pwrStateResidencyTicks::UNDEFINED   4033996000                       # Cumulative time (in ticks) in various power states
system.membus.trans_dist::ReadReq                7875                       # Transaction distribution
system.membus.trans_dist::ReadResp               7875                       # Transaction distribution
system.membus.trans_dist::WritebackDirty         3027                       # Transaction distribution
system.membus.pkt_count_system.cache_small.mem_side::system.mem_ctrl.port        18777                       # Packet count per connected master and slave (bytes)
system.membus.pkt_count_system.cache_small.mem_side::total        18777                       # Packet count per connected master and slave (bytes)
system.membus.pkt_count::total                  18777                       # Packet count per connected master and slave (bytes)
system.membus.pkt_size_system.cache_small.mem_side::system.mem_ctrl.port       697728                       # Cumulative packet size per connected master and slave (bytes)
system.membus.pkt_size_system.cache_small.mem_side::total       697728                       # Cumulative packet size per connected master and slave (bytes)
system.membus.pkt_size::total                  697728                       # Cumulative packet size per connected master and slave (bytes)
system.membus.reqLayer2.occupancy            23010000                       # Layer occupancy (ticks)
system.membus.reqLayer2.utilization               0.6                       # Layer utilization (%)
system.membus.respLayer1.occupancy           42240750                       # Layer occupancy (ticks)
system.membus.respLayer1.utilization              1.0                       # Layer utilization (%)
system.membus.power_state.pwrStateResidencyTicks::UNDEFINED   4033996000                       # Cumulative time (in ticks) in various power states
system.mem_ctrl.bytes_read::.cpu.inst          173824                       # Number of bytes read from this memory
system.mem_ctrl.bytes_read::.cpu.data          330176                       # Number of bytes read from this memory
system.mem_ctrl.bytes_read::total              504000                       # Number of bytes read from this memory
system.mem_ctrl.bytes_inst_read::.cpu.inst       173824                       # Number of instructions bytes read from this memory
system.mem_ctrl.bytes_inst_read::total         173824                       # Number of instructions bytes read from this memory
system.mem_ctrl.bytes_written::.writebacks       193728                       # Number of bytes written to this memory
system.mem_ctrl.bytes_written::total           193728                       # Number of bytes written to this memory
system.mem_ctrl.num_reads::.cpu.inst             2716                       # Number of read requests responded to by this memory
system.mem_ctrl.num_reads::.cpu.data             5159                       # Number of read requests responded to by this memory
system.mem_ctrl.num_reads::total                 7875                       # Number of read requests responded to by this memory
system.mem_ctrl.num_writes::.writebacks          3027                       # Number of write requests responded to by this memory
system.mem_ctrl.num_writes::total                3027                       # Number of write requests responded to by this memory
system.mem_ctrl.bw_read::.cpu.inst           43089780                       # Total read bandwidth from this memory (bytes/s)
system.mem_ctrl.bw_read::.cpu.data           81848371                       # Total read bandwidth from this memory (bytes/s)
system.mem_ctrl.bw_read::total              124938151                       # Total read bandwidth from this memory (bytes/s)
system.mem_ctrl.bw_inst_read::.cpu.inst      43089780                       # Instruction read bandwidth from this memory (bytes/s)
system.mem_ctrl.bw_inst_read::total          43089780                       # Instruction read bandwidth from this memory (bytes/s)
system.mem_ctrl.bw_write::.writebacks        48023845                       # Write bandwidth from this memory (bytes/s)
system.mem_ctrl.bw_write::total              48023845                       # Write bandwidth from this memory (bytes/s)
system.mem_ctrl.bw_total::.writebacks        48023845                       # Total bandwidth to/from this memory (bytes/s)
system.mem_ctrl.bw_total::.cpu.inst          43089780                       # Total bandwidth to/from this memory (bytes/s)
system.mem_ctrl.bw_total::.cpu.data          81848371                       # Total bandwidth to/from this memory (bytes/s)
system.mem_ctrl.bw_total::total             172961996                       # Total bandwidth to/from this memory (bytes/s)
system.mem_ctrl.avgPriority_.writebacks::samples      2845.00                       # Average QoS priority value for accepted requests
system.mem_ctrl.avgPriority_.cpu.inst::samples      2716.00                       # Average QoS priority value for accepted requests
system.mem_ctrl.avgPriority_.cpu.data::samples      5119.00                       # Average QoS priority value for accepted requests
system.mem_ctrl.priorityMinLatency       0.000000018750                       # per QoS priority minimum request to response latency (s)
system.mem_ctrl.priorityMaxLatency       0.001047880500                       # per QoS priority maximum request to response latency (s)
system.mem_ctrl.numReadWriteTurnArounds           167                       # Number of turnarounds from READ to WRITE
system.mem_ctrl.numWriteReadTurnArounds           167                       # Number of turnarounds from WRITE to READ
system.mem_ctrl.numStayReadState                19602                       # Number of times bus staying in READ state
system.mem_ctrl.numStayWriteState                2663                       # Number of times bus staying in WRITE state
system.mem_ctrl.readReqs                         7875                       # Number of read requests accepted
system.mem_ctrl.writeReqs                        3027                       # Number of write requests accepted
system.mem_ctrl.readBursts                       7875                       # Number of DRAM read bursts, including those serviced by the write queue
system.mem_ctrl.writeBursts                      3027                       # Number of DRAM write bursts, including those merged in the write queue
system.mem_ctrl.servicedByWrQ                      40                       # Number of DRAM read bursts serviced by the write queue
system.mem_ctrl.mergedWrBursts                    182                       # Number of DRAM write bursts merged with an existing one
system.mem_ctrl.neitherReadNorWriteReqs             0                       # Number of requests that are neither read nor write
system.mem_ctrl.perBankRdBursts::0                576                       # Per bank write bursts
system.mem_ctrl.perBankRdBursts::1                275                       # Per bank write bursts
system.mem_ctrl.perBankRdBursts::2                242                       # Per bank write bursts
system.mem_ctrl.perBankRdBursts::3                352                       # Per bank write bursts
system.mem_ctrl.perBankRdBursts::4                690                       # Per bank write bursts
system.mem_ctrl.perBankRdBursts::5                362                       # Per bank write bursts
system.mem_ctrl.perBankRdBursts::6                299                       # Per bank write bursts
system.mem_ctrl.perBankRdBursts::7                587                       # Per bank write bursts
system.mem_ctrl.perBankRdBursts::8                569                       # Per bank write bursts
system.mem_ctrl.perBankRdBursts::9                348                       # Per bank write bursts
system.mem_ctrl.perBankRdBursts::10               461                       # Per bank write bursts
system.mem_ctrl.perBankRdBursts::11               974                       # Per bank write bursts
system.mem_ctrl.perBankRdBursts::12               380                       # Per bank write bursts
system.mem_ctrl.perBankRdBursts::13               416                       # Per bank write bursts
system.mem_ctrl.perBankRdBursts::14               723                       # Per bank write bursts
system.mem_ctrl.perBankRdBursts::15               581                       # Per bank write bursts
system.mem_ctrl.perBankWrBursts::0                191                       # Per bank write bursts
system.mem_ctrl.perBankWrBursts::1                 29                       # Per bank write bursts
system.mem_ctrl.perBankWrBursts::2                 39                       # Per bank write bursts
system.mem_ctrl.perBankWrBursts::3                147                       # Per bank write bursts
system.mem_ctrl.perBankWrBursts::4                375                       # Per bank write bursts
system.mem_ctrl.perBankWrBursts::5                173                       # Per bank write bursts
system.mem_ctrl.perBankWrBursts::6                129                       # Per bank write bursts
system.mem_ctrl.perBankWrBursts::7                300                       # Per bank write bursts
system.mem_ctrl.perBankWrBursts::8                225                       # Per bank write bursts
system.mem_ctrl.perBankWrBursts::9                131                       # Per bank write bursts
system.mem_ctrl.perBankWrBursts::10               136                       # Per bank write bursts
system.mem_ctrl.perBankWrBursts::11                18                       # Per bank write bursts
system.mem_ctrl.perBankWrBursts::12               133                       # Per bank write bursts
system.mem_ctrl.perBankWrBursts::13               232                       # Per bank write bursts
system.mem_ctrl.perBankWrBursts::14               281                       # Per bank write bursts
system.mem_ctrl.perBankWrBursts::15               280                       # Per bank write bursts
system.mem_ctrl.avgRdQLen                        1.00                       # Average read queue length when enqueuing
system.mem_ctrl.avgWrQLen                       24.33                       # Average write queue length when enqueuing
system.mem_ctrl.totQLat                      88105500                       # Total ticks spent queuing
system.mem_ctrl.totBusLat                    39175000                       # Total ticks spent in databus transfers
system.mem_ctrl.totMemAccLat                235011750                       # Total ticks spent from burst creation until serviced by the DRAM
system.mem_ctrl.avgQLat                      11245.12                       # Average queueing delay per DRAM burst
system.mem_ctrl.avgBusLat                     5000.00                       # Average bus latency per DRAM burst
system.mem_ctrl.avgMemAccLat                 29995.12                       # Average memory access latency per DRAM burst
system.mem_ctrl.numRdRetry                          0                       # Number of times read queue was full causing retry
system.mem_ctrl.numWrRetry                          0                       # Number of times write queue was full causing retry
system.mem_ctrl.readRowHits                      5057                       # Number of row buffer hits during reads
system.mem_ctrl.writeRowHits                     2096                       # Number of row buffer hits during writes
system.mem_ctrl.readRowHitRate                  64.54                       # Row buffer hit rate for reads
system.mem_ctrl.writeRowHitRate                 73.67                       # Row buffer hit rate for writes
system.mem_ctrl.readPktSize::0                      0                       # Read request sizes (log2)
system.mem_ctrl.readPktSize::1                      0                       # Read request sizes (log2)
system.mem_ctrl.readPktSize::2                      0                       # Read request sizes (log2)
system.mem_ctrl.readPktSize::3                      0                       # Read request sizes (log2)
system.mem_ctrl.readPktSize::4                      0                       # Read request sizes (log2)
system.mem_ctrl.readPktSize::5                      0                       # Read request sizes (log2)
system.mem_ctrl.readPktSize::6                   7875                       # Read request sizes (log2)
system.mem_ctrl.writePktSize::0                     0                       # Write request sizes (log2)
system.mem_ctrl.writePktSize::1                     0                       # Write request sizes (log2)
system.mem_ctrl.writePktSize::2                     0                       # Write request sizes (log2)
system.mem_ctrl.writePktSize::3                     0                       # Write request sizes (log2)
system.mem_ctrl.writePktSize::4                     0                       # Write request sizes (log2)
system.mem_ctrl.writePktSize::5                     0                       # Write request sizes (log2)
system.mem_ctrl.writePktSize::6                  3027                       # Write request sizes (log2)
system.mem_ctrl.rdQLenPdf::0                     7824                       # What read queue length does an incoming req see
system.mem_ctrl.rdQLenPdf::1                       11                       # What read queue length does an incoming req see
system.mem_ctrl.rdQLenPdf::2                        0                       # What read queue length does an incoming req see
system.mem_ctrl.rdQLenPdf::3                        0                       # What read queue length does an incoming req see
system.mem_ctrl.rdQLenPdf::4                        0                       # What read queue length does an incoming req see
system.mem_ctrl.rdQLenPdf::5                        0                       # What read queue length does an incoming req see
system.mem_ctrl.rdQLenPdf::6                        0                       # What read queue length does an incoming req see
system.mem_ctrl.rdQLenPdf::7                        0                       # What read queue length does an incoming req see
system.mem_ctrl.rdQLenPdf::8                        0                       # What read queue length does an incoming req see
system.mem_ctrl.rdQLenPdf::9                        0                       # What read queue length does an incoming req see
system.mem_ctrl.rdQLenPdf::10                       0                       # What read queue length does an incoming req see
system.mem_ctrl.rdQLenPdf::11                       0                       # What read queue length does an incoming req see
system.mem_ctrl.rdQLenPdf::12                       0                       # What read queue length does an incoming req see
system.mem_ctrl.rdQLenPdf::13                       0                       # What read queue length does an incoming req see
system.mem_ctrl.rdQLenPdf::14                       0                       # What read queue length does an incoming req see
system.mem_ctrl.rdQLenPdf::15                       0                       # What read queue length does an incoming req see
system.mem_ctrl.rdQLenPdf::16                       0                       # What read queue length does an incoming req see
system.mem_ctrl.rdQLenPdf::17                       0                       # What read queue length does an incoming req see
system.mem_ctrl.rdQLenPdf::18                       0                       # What read queue length does an incoming req see
system.mem_ctrl.rdQLenPdf::19                       0                       # What read queue length does an incoming req see
system.mem_ctrl.rdQLenPdf::20                       0                       # What read queue length does an incoming req see
system.mem_ctrl.rdQLenPdf::21                       0                       # What read queue length does an incoming req see
system.mem_ctrl.rdQLenPdf::22                       0                       # What read queue length does an incoming req see
system.mem_ctrl.rdQLenPdf::23                       0                       # What read queue length does an incoming req see
system.mem_ctrl.rdQLenPdf::24                       0                       # What read queue length does an incoming req see
system.mem_ctrl.rdQLenPdf::25                       0                       # What read queue length does an incoming req see
system.mem_ctrl.rdQLenPdf::26                       0                       # What read queue length does an incoming req see
system.mem_ctrl.rdQLenPdf::27                       0                       # What read queue length does an incoming req see
system.mem_ctrl.rdQLenPdf::28                       0                       # What read queue length does an incoming req see
system.mem_ctrl.rdQLenPdf::29                       0                       # What read queue length does an incoming req see
system.mem_ctrl.rdQLenPdf::30                       0                       # What read queue length does an incoming req see
system.mem_ctrl.rdQLenPdf::31                       0                       # What read queue length does an incoming req see
system.mem_ctrl.wrQLenPdf::0                        1                       # What write queue length does an incoming req see
system.mem_ctrl.wrQLenPdf::1                        1                       # What write queue length does an incoming req see
system.mem_ctrl.wrQLenPdf::2                        1                       # What write queue length does an incoming req see
system.mem_ctrl.wrQLenPdf::3                        1                       # What write queue length does an incoming req see
system.mem_ctrl.wrQLenPdf::4                        1                       # What write queue length does an incoming req see
system.mem_ctrl.wrQLenPdf::5                        1                       # What write queue length does an incoming req see
system.mem_ctrl.wrQLenPdf::6                        1                       # What write queue length does an incoming req see
system.mem_ctrl.wrQLenPdf::7                        1                       # What write queue length does an incoming req see
system.mem_ctrl.wrQLenPdf::8                        1                       # What write queue length does an incoming req see
system.mem_ctrl.wrQLenPdf::9                        1                       # What write queue length does an incoming req see
system.mem_ctrl.wrQLenPdf::10                       1                       # What write queue length does an incoming req see
system.mem_ctrl.wrQLenPdf::11                       1                       # What write queue length does an incoming req see
system.mem_ctrl.wrQLenPdf::12                       1                       # What write queue length does an incoming req see
system.mem_ctrl.wrQLenPdf::13                       1                       # What write queue length does an incoming req see
system.mem_ctrl.wrQLenPdf::14                       1                       # What write queue length does an incoming req see
system.mem_ctrl.wrQLenPdf::15                      69                       # What write queue length does an incoming req see
system.mem_ctrl.wrQLenPdf::16                      76                       # What write queue length does an incoming req see
system.mem_ctrl.wrQLenPdf::17                     162                       # What write queue length does an incoming req see
system.mem_ctrl.wrQLenPdf::18                     168                       # What write queue length does an incoming req see
system.mem_ctrl.wrQLenPdf::19                     169                       # What write queue length does an incoming req see
system.mem_ctrl.wrQLenPdf::20                     168                       # What write queue length does an incoming req see
system.mem_ctrl.wrQLenPdf::21                     168                       # What write queue length does an incoming req see
system.mem_ctrl.wrQLenPdf::22                     168                       # What write queue length does an incoming req see
system.mem_ctrl.wrQLenPdf::23                     168                       # What write queue length does an incoming req see
system.mem_ctrl.wrQLenPdf::24                     168                       # What write queue length does an incoming req see
system.mem_ctrl.wrQLenPdf::25                     168                       # What write queue length does an incoming req see
system.mem_ctrl.wrQLenPdf::26                     169                       # What write queue length does an incoming req see
system.mem_ctrl.wrQLenPdf::27                     168                       # What write queue length does an incoming req see
system.mem_ctrl.wrQLenPdf::28                     167                       # What write queue length does an incoming req see
system.mem_ctrl.wrQLenPdf::29                     173                       # What write queue length does an incoming req see
system.mem_ctrl.wrQLenPdf::30                     167                       # What write queue length does an incoming req see
system.mem_ctrl.wrQLenPdf::31                     167                       # What write queue length does an incoming req see
system.mem_ctrl.wrQLenPdf::32                     167                       # What write queue length does an incoming req see
system.mem_ctrl.wrQLenPdf::33                       0                       # What write queue length does an incoming req see
system.mem_ctrl.wrQLenPdf::34                       0                       # What write queue length does an incoming req see
system.mem_ctrl.wrQLenPdf::35                       0                       # What write queue length does an incoming req see
system.mem_ctrl.wrQLenPdf::36                       0                       # What write queue length does an incoming req see
system.mem_ctrl.wrQLenPdf::37                       0                       # What write queue length does an incoming req see
system.mem_ctrl.wrQLenPdf::38                       0                       # What write queue length does an incoming req see
system.mem_ctrl.wrQLenPdf::39                       0                       # What write queue length does an incoming req see
system.mem_ctrl.wrQLenPdf::40                       0                       # What write queue length does an incoming req see
system.mem_ctrl.wrQLenPdf::41                       0                       # What write queue length does an incoming req see
system.mem_ctrl.wrQLenPdf::42                       0                       # What write queue length does an incoming req see
system.mem_ctrl.wrQLenPdf::43                       0                       # What write queue length does an incoming req see
system.mem_ctrl.wrQLenPdf::44                       0                       # What write queue length does an incoming req see
system.mem_ctrl.wrQLenPdf::45                       0                       # What write queue length does an incoming req see
system.mem_ctrl.wrQLenPdf::46                       0                       # What write queue length does an incoming req see
system.mem_ctrl.wrQLenPdf::47                       0                       # What write queue length does an incoming req see
system.mem_ctrl.wrQLenPdf::48                       0                       # What write queue length does an incoming req see
system.mem_ctrl.wrQLenPdf::49                       0                       # What write queue length does an incoming req see
system.mem_ctrl.wrQLenPdf::50                       0                       # What write queue length does an incoming req see
system.mem_ctrl.wrQLenPdf::51                       0                       # What write queue length does an incoming req see
system.mem_ctrl.wrQLenPdf::52                       0                       # What write queue length does an incoming req see
system.mem_ctrl.wrQLenPdf::53                       0                       # What write queue length does an incoming req see
system.mem_ctrl.wrQLenPdf::54                       0                       # What write queue length does an incoming req see
system.mem_ctrl.wrQLenPdf::55                       0                       # What write queue length does an incoming req see
system.mem_ctrl.wrQLenPdf::56                       0                       # What write queue length does an incoming req see
system.mem_ctrl.wrQLenPdf::57                       0                       # What write queue length does an incoming req see
system.mem_ctrl.wrQLenPdf::58                       0                       # What write queue length does an incoming req see
system.mem_ctrl.wrQLenPdf::59                       0                       # What write queue length does an incoming req see
system.mem_ctrl.wrQLenPdf::60                       0                       # What write queue length does an incoming req see
system.mem_ctrl.wrQLenPdf::61                       0                       # What write queue length does an incoming req see
system.mem_ctrl.wrQLenPdf::62                       0                       # What write queue length does an incoming req see
system.mem_ctrl.wrQLenPdf::63                       0                       # What write queue length does an incoming req see
system.mem_ctrl.bytesPerActivate::samples         3501                       # Bytes accessed per row activation
system.mem_ctrl.bytesPerActivate::mean     194.760354                       # Bytes accessed per row activation
system.mem_ctrl.bytesPerActivate::gmean    125.413972                       # Bytes accessed per row activation
system.mem_ctrl.bytesPerActivate::stdev    232.736061                       # Bytes accessed per row activation
system.mem_ctrl.bytesPerActivate::0-127          1797     51.33%     51.33% # Bytes accessed per row activation
system.mem_ctrl.bytesPerActivate::128-255          907     25.91%     77.24% # Bytes accessed per row activation
system.mem_ctrl.bytesPerActivate::256-383          290      8.28%     85.52% # Bytes accessed per row activation
system.mem_ctrl.bytesPerActivate::384-511          142      4.06%     89.57% # Bytes accessed per row activation
system.mem_ctrl.bytesPerActivate::512-639           96      2.74%     92.32% # Bytes accessed per row activation
system.mem_ctrl.bytesPerActivate::640-767           64      1.83%     94.14% # Bytes accessed per row activation
system.mem_ctrl.bytesPerActivate::768-895           51      1.46%     95.60% # Bytes accessed per row activation
system.mem_ctrl.bytesPerActivate::896-1023           23      0.66%     96.26% # Bytes accessed per row activation
system.mem_ctrl.bytesPerActivate::1024-1151          131      3.74%    100.00% # Bytes accessed per row activation
system.mem_ctrl.bytesPerActivate::total          3501                       # Bytes accessed per row activation
system.mem_ctrl.rdPerTurnAround::samples          167                       # Reads before turning the bus around for writes
system.mem_ctrl.rdPerTurnAround::mean       46.856287                       # Reads before turning the bus around for writes
system.mem_ctrl.rdPerTurnAround::gmean      34.213650                       # Reads before turning the bus around for writes
system.mem_ctrl.rdPerTurnAround::stdev      99.966276                       # Reads before turning the bus around for writes
system.mem_ctrl.rdPerTurnAround::0-63             145     86.83%     86.83% # Reads before turning the bus around for writes
system.mem_ctrl.rdPerTurnAround::64-127            18     10.78%     97.60% # Reads before turning the bus around for writes
system.mem_ctrl.rdPerTurnAround::128-191            2      1.20%     98.80% # Reads before turning the bus around for writes
system.mem_ctrl.rdPerTurnAround::192-255            1      0.60%     99.40% # Reads before turning the bus around for writes
system.mem_ctrl.rdPerTurnAround::1280-1343            1      0.60%    100.00% # Reads before turning the bus around for writes
system.mem_ctrl.rdPerTurnAround::total            167                       # Reads before turning the bus around for writes
system.mem_ctrl.wrPerTurnAround::samples          167                       # Writes before turning the bus around for reads
system.mem_ctrl.wrPerTurnAround::mean       16.880240                       # Writes before turning the bus around for reads
system.mem_ctrl.wrPerTurnAround::gmean      16.850570                       # Writes before turning the bus around for reads
system.mem_ctrl.wrPerTurnAround::stdev       1.010799                       # Writes before turning the bus around for reads
system.mem_ctrl.wrPerTurnAround::16                92     55.09%     55.09% # Writes before turning the bus around for reads
system.mem_ctrl.wrPerTurnAround::17                 7      4.19%     59.28% # Writes before turning the bus around for reads
system.mem_ctrl.wrPerTurnAround::18                64     38.32%     97.60% # Writes before turning the bus around for reads
system.mem_ctrl.wrPerTurnAround::19                 4      2.40%    100.00% # Writes before turning the bus around for reads
system.mem_ctrl.wrPerTurnAround::total            167                       # Writes before turning the bus around for reads
system.mem_ctrl.bytesReadDRAM                  501440                       # Total number of bytes read from DRAM
system.mem_ctrl.bytesReadWrQ                     2560                       # Total number of bytes read from write queue
system.mem_ctrl.bytesWritten                   180416                       # Total number of bytes written to DRAM
system.mem_ctrl.bytesReadSys                   504000                       # Total read bytes from the system interface side
system.mem_ctrl.bytesWrittenSys                193728                       # Total written bytes from the system interface side
system.mem_ctrl.avgRdBW                        124.30                       # Average DRAM read bandwidth in MiByte/s
system.mem_ctrl.avgWrBW                         44.72                       # Average achieved write bandwidth in MiByte/s
system.mem_ctrl.avgRdBWSys                     124.94                       # Average system read bandwidth in MiByte/s
system.mem_ctrl.avgWrBWSys                      48.02                       # Average system write bandwidth in MiByte/s
system.mem_ctrl.peakBW                       12800.00                       # Theoretical peak bandwidth in MiByte/s
system.mem_ctrl.busUtil                          1.32                       # Data bus utilization in percentage
system.mem_ctrl.busUtilRead                      0.97                       # Data bus utilization in percentage for reads
system.mem_ctrl.busUtilWrite                     0.35                       # Data bus utilization in percentage for writes
system.mem_ctrl.totGap                     3680264000                       # Total gap between requests
system.mem_ctrl.avgGap                      337576.96                       # Average gap between requests
system.mem_ctrl.masterReadBytes::.cpu.inst       173824                       # Per-master bytes read from memory
system.mem_ctrl.masterReadBytes::.cpu.data       327616                       # Per-master bytes read from memory
system.mem_ctrl.masterWriteBytes::.writebacks       180416                       # Per-master bytes write to memory
system.mem_ctrl.masterReadRate::.cpu.inst 43089779.960118949413                       # Per-master bytes read from memory rate (Bytes/sec)
system.mem_ctrl.masterReadRate::.cpu.data 81213764.217911973596                       # Per-master bytes read from memory rate (Bytes/sec)
system.mem_ctrl.masterWriteRate::.writebacks 44723891.644909910858                       # Per-master bytes write to memory rate (Bytes/sec)
system.mem_ctrl.masterReadAccesses::.cpu.inst         2716                       # Per-master read serviced memory accesses
system.mem_ctrl.masterReadAccesses::.cpu.data         5159                       # Per-master read serviced memory accesses
system.mem_ctrl.masterWriteAccesses::.writebacks         3027                       # Per-master write serviced memory accesses
system.mem_ctrl.masterReadTotalLat::.cpu.inst     87571750                       # Per-master read total memory access latency
system.mem_ctrl.masterReadTotalLat::.cpu.data    147440000                       # Per-master read total memory access latency
system.mem_ctrl.masterWriteTotalLat::.writebacks  82859130250                       # Per-master write total memory access latency
system.mem_ctrl.masterReadAvgLat::.cpu.inst     32242.91                       # Per-master read average memory access latency
system.mem_ctrl.masterReadAvgLat::.cpu.data     28579.18                       # Per-master read average memory access latency
system.mem_ctrl.masterWriteAvgLat::.writebacks  27373349.93                       # Per-master write average memory access latency
system.mem_ctrl.pageHitRate                     66.98                       # Row buffer hit rate, read and write combined
system.mem_ctrl.rank1.actEnergy              14637000                       # Energy for activate commands per rank (pJ)
system.mem_ctrl.rank1.preEnergy               7779750                       # Energy for precharge commands per rank (pJ)
system.mem_ctrl.rank1.readEnergy             31787280                       # Energy for read commands per rank (pJ)
system.mem_ctrl.rank1.writeEnergy             7495920                       # Energy for write commands per rank (pJ)
system.mem_ctrl.rank1.refreshEnergy      318383520.000000                       # Energy for refresh commands per rank (pJ)
system.mem_ctrl.rank1.actBackEnergy        1197367650                       # Energy for active background per rank (pJ)
system.mem_ctrl.rank1.preBackEnergy         540744960                       # Energy for precharge background per rank (pJ)
system.mem_ctrl.rank1.actPowerDownEnergy            0                       # Energy for active power-down per rank (pJ)
system.mem_ctrl.rank1.prePowerDownEnergy            0                       # Energy for precharge power-down per rank (pJ)
system.mem_ctrl.rank1.selfRefreshEnergy             0                       # Energy for self refresh per rank (pJ)
system.mem_ctrl.rank1.totalEnergy          2118196080                       # Total energy per rank (pJ)
system.mem_ctrl.rank1.averagePower         525.086311                       # Core power per rank (mW)
system.mem_ctrl.rank1.totalIdleTime                 0                       # Total Idle time Per DRAM Rank
system.mem_ctrl.rank1.memoryStateTime::IDLE   1393343750                       # Time in different power states
system.mem_ctrl.rank1.memoryStateTime::REF    134680000                       # Time in different power states
system.mem_ctrl.rank1.memoryStateTime::SREF            0                       # Time in different power states
system.mem_ctrl.rank1.memoryStateTime::PRE_PDN            0                       # Time in different power states
system.mem_ctrl.rank1.memoryStateTime::ACT   2505972250                       # Time in different power states
system.mem_ctrl.rank1.memoryStateTime::ACT_PDN            0                       # Time in different power states
system.mem_ctrl.rank0.actEnergy              10360140                       # Energy for activate commands per rank (pJ)
system.mem_ctrl.rank0.preEnergy               5506545                       # Energy for precharge commands per rank (pJ)
system.mem_ctrl.rank0.readEnergy             24154620                       # Energy for read commands per rank (pJ)
system.mem_ctrl.rank0.writeEnergy             7219260                       # Energy for write commands per rank (pJ)
system.mem_ctrl.rank0.refreshEnergy      318383520.000000                       # Energy for refresh commands per rank (pJ)
system.mem_ctrl.rank0.actBackEnergy         917831100                       # Energy for active background per rank (pJ)
system.mem_ctrl.rank0.preBackEnergy         776144160                       # Energy for precharge background per rank (pJ)
system.mem_ctrl.rank0.actPowerDownEnergy            0                       # Energy for active power-down per rank (pJ)
system.mem_ctrl.rank0.prePowerDownEnergy            0                       # Energy for precharge power-down per rank (pJ)
system.mem_ctrl.rank0.selfRefreshEnergy             0                       # Energy for self refresh per rank (pJ)
system.mem_ctrl.rank0.totalEnergy          2059599345                       # Total energy per rank (pJ)
system.mem_ctrl.rank0.averagePower         510.560582                       # Core power per rank (mW)
system.mem_ctrl.rank0.totalIdleTime                 0                       # Total Idle time Per DRAM Rank
system.mem_ctrl.rank0.memoryStateTime::IDLE   2008289000                       # Time in different power states
system.mem_ctrl.rank0.memoryStateTime::REF    134680000                       # Time in different power states
system.mem_ctrl.rank0.memoryStateTime::SREF            0                       # Time in different power states
system.mem_ctrl.rank0.memoryStateTime::PRE_PDN            0                       # Time in different power states
system.mem_ctrl.rank0.memoryStateTime::ACT   1891027000                       # Time in different power states
system.mem_ctrl.rank0.memoryStateTime::ACT_PDN            0                       # Time in different power states
system.mem_ctrl.power_state.pwrStateResidencyTicks::UNDEFINED   4033996000                       # Cumulative time (in ticks) in various power states
system.cache_medium.blocked_cycles::no_mshrs            0                       # number of cycles access was blocked
system.cache_medium.blocked_cycles::no_targets            0                       # number of cycles access was blocked
system.cache_medium.blocked::no_mshrs               0                       # number of cycles access was blocked
system.cache_medium.blocked::no_targets             0                       # number of cycles access was blocked
system.cache_medium.avg_blocked_cycles::no_mshrs          nan                       # average number of cycles each access was blocked
system.cache_medium.avg_blocked_cycles::no_targets          nan                       # average number of cycles each access was blocked
system.cache_medium.replacements                    0                       # number of replacements
system.cache_medium.power_state.pwrStateResidencyTicks::UNDEFINED   4033996000                       # Cumulative time (in ticks) in various power states
system.cache_medium.tags.tagsinuse                  0                       # Cycle average of tags in use
system.cache_medium.tags.total_refs                 0                       # Total number of references to valid blocks.
system.cache_medium.tags.sampled_refs               0                       # Sample count of references to valid blocks.
system.cache_medium.tags.avg_refs                 nan                       # Average number of references to valid blocks.
system.cache_medium.tags.warmup_cycle               0                       # Cycle when the warmup percentage was hit.
system.cache_medium.tags.tag_accesses               0                       # Number of tag accesses
system.cache_medium.tags.data_accesses              0                       # Number of data accesses
system.cache_medium.tags.power_state.pwrStateResidencyTicks::UNDEFINED   4033996000                       # Cumulative time (in ticks) in various power states
system.clk_domain.clock                          1000                       # Clock period in ticks
system.clk_domain.voltage_domain.voltage            1                       # Voltage in Volts
system.dcache.demand_hits::.cpu.data           304309                       # number of demand (read+write) hits
system.dcache.demand_hits::total               304309                       # number of demand (read+write) hits
system.dcache.overall_hits::.cpu.data          304942                       # number of overall hits
system.dcache.overall_hits::total              304942                       # number of overall hits
system.dcache.demand_misses::.cpu.data           8959                       # number of demand (read+write) misses
system.dcache.demand_misses::total               8959                       # number of demand (read+write) misses
system.dcache.overall_misses::.cpu.data          9300                       # number of overall misses
system.dcache.overall_misses::total              9300                       # number of overall misses
system.dcache.demand_miss_latency::.cpu.data    462024000                       # number of demand (read+write) miss cycles
system.dcache.demand_miss_latency::total    462024000                       # number of demand (read+write) miss cycles
system.dcache.overall_miss_latency::.cpu.data    475129000                       # number of overall miss cycles
system.dcache.overall_miss_latency::total    475129000                       # number of overall miss cycles
system.dcache.demand_accesses::.cpu.data       313268                       # number of demand (read+write) accesses
system.dcache.demand_accesses::total           313268                       # number of demand (read+write) accesses
system.dcache.overall_accesses::.cpu.data       314242                       # number of overall (read+write) accesses
system.dcache.overall_accesses::total          314242                       # number of overall (read+write) accesses
system.dcache.demand_miss_rate::.cpu.data     0.028599                       # miss rate for demand accesses
system.dcache.demand_miss_rate::total        0.028599                       # miss rate for demand accesses
system.dcache.overall_miss_rate::.cpu.data     0.029595                       # miss rate for overall accesses
system.dcache.overall_miss_rate::total       0.029595                       # miss rate for overall accesses
system.dcache.demand_avg_miss_latency::.cpu.data 51570.934256                       # average overall miss latency
system.dcache.demand_avg_miss_latency::total 51570.934256                       # average overall miss latency
system.dcache.overall_avg_miss_latency::.cpu.data 51089.139785                       # average overall miss latency
system.dcache.overall_avg_miss_latency::total 51089.139785                       # average overall miss latency
system.dcache.blocked_cycles::no_mshrs              0                       # number of cycles access was blocked
system.dcache.blocked_cycles::no_targets            0                       # number of cycles access was blocked
system.dcache.blocked::no_mshrs                     0                       # number of cycles access was blocked
system.dcache.blocked::no_targets                   0                       # number of cycles access was blocked
system.dcache.avg_blocked_cycles::no_mshrs          nan                       # average number of cycles each access was blocked
system.dcache.avg_blocked_cycles::no_targets          nan                       # average number of cycles each access was blocked
system.dcache.writebacks::.writebacks            5741                       # number of writebacks
system.dcache.writebacks::total                  5741                       # number of writebacks
system.dcache.demand_mshr_misses::.cpu.data         8959                       # number of demand (read+write) MSHR misses
system.dcache.demand_mshr_misses::total          8959                       # number of demand (read+write) MSHR misses
system.dcache.overall_mshr_misses::.cpu.data         9300                       # number of overall MSHR misses
system.dcache.overall_mshr_misses::total         9300                       # number of overall MSHR misses
system.dcache.demand_mshr_miss_latency::.cpu.data    444108000                       # number of demand (read+write) MSHR miss cycles
system.dcache.demand_mshr_miss_latency::total    444108000                       # number of demand (read+write) MSHR miss cycles
[...]
system.dcache.tags.age_task_id_blocks_1024::0            3                       # Occupied blocks per task id
system.dcache.tags.age_task_id_blocks_1024::1           19                       # Occupied blocks per task id
system.dcache.tags.age_task_id_blocks_1024::2          234                       # Occupied blocks per task id
system.dcache.tags.occ_task_id_percent::1024            1                       # Percentage of cache occupancy per task id
system.dcache.tags.tag_accesses               2764708                       # Number of tag accesses
system.dcache.tags.data_accesses              2764708                       # Number of data accesses
system.dcache.tags.power_state.pwrStateResidencyTicks::UNDEFINED  32334704000                       # Cumulative time (in ticks) in various power states
system.cache_large.blocked_cycles::no_mshrs            0                       # number of cycles access was blocked
system.cache_large.blocked_cycles::no_targets            0                       # number of cycles access was blocked
system.cache_large.blocked::no_mshrs                0                       # number of cycles access was blocked
system.cache_large.blocked::no_targets              0                       # number of cycles access was blocked
system.cache_large.avg_blocked_cycles::no_mshrs          nan                       # average number of cycles each access was blocked
system.cache_large.avg_blocked_cycles::no_targets          nan                       # average number of cycles each access was blocked
system.cache_large.replacements                     0                       # number of replacements
system.cache_large.power_state.pwrStateResidencyTicks::UNDEFINED  32334704000                       # Cumulative time (in ticks) in various power states
system.cache_large.tags.tagsinuse                   0                       # Cycle average of tags in use
system.cache_large.tags.total_refs                  0                       # Total number of references to valid blocks.
system.cache_large.tags.sampled_refs                0                       # Sample count of references to valid blocks.
system.cache_large.tags.avg_refs                  nan                       # Average number of references to valid blocks.
system.cache_large.tags.warmup_cycle                0                       # Cycle when the warmup percentage was hit.
system.cache_large.tags.tag_accesses                0                       # Number of tag accesses
system.cache_large.tags.data_accesses               0                       # Number of data accesses
system.cache_large.tags.power_state.pwrStateResidencyTicks::UNDEFINED  32334704000                       # Cumulative time (in ticks) in various power states
system.l2cache.demand_hits::.cpu.inst           85490                       # number of demand (read+write) hits
system.l2cache.demand_hits::.cpu.data           36632                       # number of demand (read+write) hits
system.l2cache.demand_hits::total              122122                       # number of demand (read+write) hits
system.l2cache.overall_hits::.cpu.inst          85490                       # number of overall hits
system.l2cache.overall_hits::.cpu.data          36632                       # number of overall hits
system.l2cache.overall_hits::total             122122                       # number of overall hits
system.l2cache.demand_misses::.cpu.inst         64956                       # number of demand (read+write) misses
system.l2cache.demand_misses::.cpu.data         60544                       # number of demand (read+write) misses
system.l2cache.demand_misses::total            125500                       # number of demand (read+write) misses
system.l2cache.overall_misses::.cpu.inst        64956                       # number of overall misses
system.l2cache.overall_misses::.cpu.data        60544                       # number of overall misses
system.l2cache.overall_misses::total           125500                       # number of overall misses
system.l2cache.demand_miss_latency::.cpu.inst   3047225000                       # number of demand (read+write) miss cycles
system.l2cache.demand_miss_latency::.cpu.data   3252017000                       # number of demand (read+write) miss cycles
system.l2cache.demand_miss_latency::total   6299242000                       # number of demand (read+write) miss cycles
system.l2cache.overall_miss_latency::.cpu.inst   3047225000                       # number of overall miss cycles
system.l2cache.overall_miss_latency::.cpu.data   3252017000                       # number of overall miss cycles
system.l2cache.overall_miss_latency::total   6299242000                       # number of overall miss cycles
system.l2cache.demand_accesses::.cpu.inst       150446                       # number of demand (read+write) accesses
system.l2cache.demand_accesses::.cpu.data        97176                       # number of demand (read+write) accesses
system.l2cache.demand_accesses::total          247622                       # number of demand (read+write) accesses
system.l2cache.overall_accesses::.cpu.inst       150446                       # number of overall (read+write) accesses
system.l2cache.overall_accesses::.cpu.data        97176                       # number of overall (read+write) accesses
system.l2cache.overall_accesses::total         247622                       # number of overall (read+write) accesses
system.l2cache.demand_miss_rate::.cpu.inst     0.431756                       # miss rate for demand accesses
system.l2cache.demand_miss_rate::.cpu.data     0.623034                       # miss rate for demand accesses
system.l2cache.demand_miss_rate::total       0.506821                       # miss rate for demand accesses
system.l2cache.overall_miss_rate::.cpu.inst     0.431756                       # miss rate for overall accesses
system.l2cache.overall_miss_rate::.cpu.data     0.623034                       # miss rate for overall accesses
system.l2cache.overall_miss_rate::total      0.506821                       # miss rate for overall accesses
system.l2cache.demand_avg_miss_latency::.cpu.inst 46912.140526                       # average overall miss latency
system.l2cache.demand_avg_miss_latency::.cpu.data 53713.282902                       # average overall miss latency
system.l2cache.demand_avg_miss_latency::total 50193.163347                       # average overall miss latency
system.l2cache.overall_avg_miss_latency::.cpu.inst 46912.140526                       # average overall miss latency
system.l2cache.overall_avg_miss_latency::.cpu.data 53713.282902                       # average overall miss latency
system.l2cache.overall_avg_miss_latency::total 50193.163347                       # average overall miss latency
system.l2cache.blocked_cycles::no_mshrs             0                       # number of cycles access was blocked
system.l2cache.blocked_cycles::no_targets            0                       # number of cycles access was blocked
system.l2cache.blocked::no_mshrs                    0                       # number of cycles access was blocked
system.l2cache.blocked::no_targets                  0                       # number of cycles access was blocked
system.l2cache.avg_blocked_cycles::no_mshrs          nan                       # average number of cycles each access was blocked
system.l2cache.avg_blocked_cycles::no_targets          nan                       # average number of cycles each access was blocked
system.l2cache.writebacks::.writebacks          41607                       # number of writebacks
system.l2cache.writebacks::total                41607                       # number of writebacks
system.l2cache.demand_mshr_misses::.cpu.inst        64956                       # number of demand (read+write) MSHR misses
system.l2cache.demand_mshr_misses::.cpu.data        60544                       # number of demand (read+write) MSHR misses
system.l2cache.demand_mshr_misses::total       125500                       # number of demand (read+write) MSHR misses
system.l2cache.overall_mshr_misses::.cpu.inst        64956                       # number of overall MSHR misses
system.l2cache.overall_mshr_misses::.cpu.data        60544                       # number of overall MSHR misses
system.l2cache.overall_mshr_misses::total       125500                       # number of overall MSHR misses
system.l2cache.demand_mshr_miss_latency::.cpu.inst   2917313000                       # number of demand (read+write) MSHR miss cycles
system.l2cache.demand_mshr_miss_latency::.cpu.data   3130929000                       # number of demand (read+write) MSHR miss cycles
system.l2cache.demand_mshr_miss_latency::total   6048242000                       # number of demand (read+write) MSHR miss cycles
system.l2cache.overall_mshr_miss_latency::.cpu.inst   2917313000                       # number of overall MSHR miss cycles
system.l2cache.overall_mshr_miss_latency::.cpu.data   3130929000                       # number of overall MSHR miss cycles
system.l2cache.overall_mshr_miss_latency::total   6048242000                       # number of overall MSHR miss cycles
system.l2cache.demand_mshr_miss_rate::.cpu.inst     0.431756                       # mshr miss rate for demand accesses
system.l2cache.demand_mshr_miss_rate::.cpu.data     0.623034                       # mshr miss rate for demand accesses
system.l2cache.demand_mshr_miss_rate::total     0.506821                       # mshr miss rate for demand accesses
system.l2cache.overall_mshr_miss_rate::.cpu.inst     0.431756                       # mshr miss rate for overall accesses
system.l2cache.overall_mshr_miss_rate::.cpu.data     0.623034                       # mshr miss rate for overall accesses
system.l2cache.overall_mshr_miss_rate::total     0.506821                       # mshr miss rate for overall accesses
system.l2cache.demand_avg_mshr_miss_latency::.cpu.inst 44912.140526                       # average overall mshr miss latency
system.l2cache.demand_avg_mshr_miss_latency::.cpu.data 51713.282902                       # average overall mshr miss latency
system.l2cache.demand_avg_mshr_miss_latency::total 48193.163347                       # average overall mshr miss latency
system.l2cache.overall_avg_mshr_miss_latency::.cpu.inst 44912.140526                       # average overall mshr miss latency
system.l2cache.overall_avg_mshr_miss_latency::.cpu.data 51713.282902                       # average overall mshr miss latency
system.l2cache.overall_avg_mshr_miss_latency::total 48193.163347                       # average overall mshr miss latency
system.l2cache.replacements                    149066                       # number of replacements
system.l2cache.ReadReq_hits::.cpu.inst          85490                       # number of ReadReq hits
system.l2cache.ReadReq_hits::.cpu.data          36632                       # number of ReadReq hits
system.l2cache.ReadReq_hits::total             122122                       # number of ReadReq hits
system.l2cache.ReadReq_misses::.cpu.inst        64956                       # number of ReadReq misses
system.l2cache.ReadReq_misses::.cpu.data        60544                       # number of ReadReq misses
system.l2cache.ReadReq_misses::total           125500                       # number of ReadReq misses
system.l2cache.ReadReq_miss_latency::.cpu.inst   3047225000                       # number of ReadReq miss cycles
system.l2cache.ReadReq_miss_latency::.cpu.data   3252017000                       # number of ReadReq miss cycles
system.l2cache.ReadReq_miss_latency::total   6299242000                       # number of ReadReq miss cycles
system.l2cache.ReadReq_accesses::.cpu.inst       150446                       # number of ReadReq accesses(hits+misses)
system.l2cache.ReadReq_accesses::.cpu.data        97176                       # number of ReadReq accesses(hits+misses)
system.l2cache.ReadReq_accesses::total         247622                       # number of ReadReq accesses(hits+misses)
system.l2cache.ReadReq_miss_rate::.cpu.inst     0.431756                       # miss rate for ReadReq accesses
system.l2cache.ReadReq_miss_rate::.cpu.data     0.623034                       # miss rate for ReadReq accesses
system.l2cache.ReadReq_miss_rate::total      0.506821                       # miss rate for ReadReq accesses
system.l2cache.ReadReq_avg_miss_latency::.cpu.inst 46912.140526                       # average ReadReq miss latency
system.l2cache.ReadReq_avg_miss_latency::.cpu.data 53713.282902                       # average ReadReq miss latency
system.l2cache.ReadReq_avg_miss_latency::total 50193.163347                       # average ReadReq miss latency
system.l2cache.ReadReq_mshr_misses::.cpu.inst        64956                       # number of ReadReq MSHR misses
system.l2cache.ReadReq_mshr_misses::.cpu.data        60544                       # number of ReadReq MSHR misses
system.l2cache.ReadReq_mshr_misses::total       125500                       # number of ReadReq MSHR misses
system.l2cache.ReadReq_mshr_miss_latency::.cpu.inst   2917313000                       # number of ReadReq MSHR miss cycles
system.l2cache.ReadReq_mshr_miss_latency::.cpu.data   3130929000                       # number of ReadReq MSHR miss cycles
system.l2cache.ReadReq_mshr_miss_latency::total   6048242000                       # number of ReadReq MSHR miss cycles
system.l2cache.ReadReq_mshr_miss_rate::.cpu.inst     0.431756                       # mshr miss rate for ReadReq accesses
system.l2cache.ReadReq_mshr_miss_rate::.cpu.data     0.623034                       # mshr miss rate for ReadReq accesses
system.l2cache.ReadReq_mshr_miss_rate::total     0.506821                       # mshr miss rate for ReadReq accesses
system.l2cache.ReadReq_avg_mshr_miss_latency::.cpu.inst 44912.140526                       # average ReadReq mshr miss latency
system.l2cache.ReadReq_avg_mshr_miss_latency::.cpu.data 51713.282902                       # average ReadReq mshr miss latency
system.l2cache.ReadReq_avg_mshr_miss_latency::total 48193.163347                       # average ReadReq mshr miss latency
system.l2cache.WritebackDirty_hits::.writebacks        50706                       # number of WritebackDirty hits
system.l2cache.WritebackDirty_hits::total        50706                       # number of WritebackDirty hits
system.l2cache.WritebackDirty_accesses::.writebacks        50706                       # number of WritebackDirty accesses(hits+misses)
system.l2cache.WritebackDirty_accesses::total        50706                       # number of WritebackDirty accesses(hits+misses)
system.l2cache.power_state.pwrStateResidencyTicks::UNDEFINED  32334704000                       # Cumulative time (in ticks) in various power states
system.l2cache.tags.tagsinuse              510.978609                       # Cycle average of tags in use
system.l2cache.tags.total_refs                 298328                       # Total number of references to valid blocks.
system.l2cache.tags.sampled_refs               149578                       # Sample count of references to valid blocks.
system.l2cache.tags.avg_refs                 1.994464                       # Average number of references to valid blocks.
system.l2cache.tags.warmup_cycle                78000                       # Cycle when the warmup percentage was hit.
system.l2cache.tags.occ_blocks::.writebacks   117.264811                       # Average occupied blocks per requestor
system.l2cache.tags.occ_blocks::.cpu.inst   132.788772                       # Average occupied blocks per requestor
system.l2cache.tags.occ_blocks::.cpu.data   260.925026                       # Average occupied blocks per requestor
system.l2cache.tags.occ_percent::.writebacks     0.229033                       # Average percentage of cache occupancy
system.l2cache.tags.occ_percent::.cpu.inst     0.259353                       # Average percentage of cache occupancy
system.l2cache.tags.occ_percent::.cpu.data     0.509619                       # Average percentage of cache occupancy
system.l2cache.tags.occ_percent::total       0.998005                       # Average percentage of cache occupancy
system.l2cache.tags.occ_task_id_blocks::1024          512                       # Occupied blocks per task id
system.l2cache.tags.age_task_id_blocks_1024::1           18                       # Occupied blocks per task id
system.l2cache.tags.age_task_id_blocks_1024::2          434                       # Occupied blocks per task id
system.l2cache.tags.age_task_id_blocks_1024::3           60                       # Occupied blocks per task id
system.l2cache.tags.occ_task_id_percent::1024            1                       # Percentage of cache occupancy per task id
system.l2cache.tags.tag_accesses               447906                       # Number of tag accesses
system.l2cache.tags.data_accesses              447906                       # Number of data accesses
system.l2cache.tags.power_state.pwrStateResidencyTicks::UNDEFINED  32334704000                       # Cumulative time (in ticks) in various power states
system.l2bar.trans_dist::ReadReq               247622                       # Transaction distribution
system.l2bar.trans_dist::ReadResp              247622                       # Transaction distribution
system.l2bar.trans_dist::WritebackDirty         50706                       # Transaction distribution
system.l2bar.pkt_count_system.dcache.mem_side::system.l2cache.cpu_side       245058                       # Packet count per connected master and slave (bytes)
system.l2bar.pkt_count_system.icache.mem_side::system.l2cache.cpu_side       300892                       # Packet count per connected master and slave (bytes)
system.l2bar.pkt_count::total                  545950                       # Packet count per connected master and slave (bytes)
system.l2bar.pkt_size_system.dcache.mem_side::system.l2cache.cpu_side      9464448                       # Cumulative packet size per connected master and slave (bytes)
system.l2bar.pkt_size_system.icache.mem_side::system.l2cache.cpu_side      9628544                       # Cumulative packet size per connected master and slave (bytes)
system.l2bar.pkt_size::total                 19092992                       # Cumulative packet size per connected master and slave (bytes)
system.l2bar.respLayer1.occupancy           752230000                       # Layer occupancy (ticks)
system.l2bar.respLayer1.utilization               2.3                       # Layer utilization (%)
system.l2bar.reqLayer0.occupancy            501152000                       # Layer occupancy (ticks)
system.l2bar.reqLayer0.utilization                1.5                       # Layer utilization (%)
system.l2bar.respLayer0.occupancy           485880000                       # Layer occupancy (ticks)
system.l2bar.respLayer0.utilization               1.5                       # Layer utilization (%)
system.l2bar.power_state.pwrStateResidencyTicks::UNDEFINED  32334704000                       # Cumulative time (in ticks) in various power states
system.cpu.dtb.walker.power_state.pwrStateResidencyTicks::UNDEFINED  32334704000                       # Cumulative time (in ticks) in various power states
system.cpu.interrupts.clk_domain.clock          16000                       # Clock period in ticks
system.cpu.itb.walker.power_state.pwrStateResidencyTicks::UNDEFINED  32334704000                       # Cumulative time (in ticks) in various power states
system.cpu.power_state.numTransitions               1                       # Number of power state transitions
system.cpu.power_state.pwrStateResidencyTicks::ON  32334704000                       # Cumulative time (in ticks) in various power states

---------- End Simulation Statistics   ----------
