
---------- Begin Simulation Statistics ----------
final_tick                               422180464000                       # Number of ticks from beginning of simulation (restored from checkpoints and never reset)
host_inst_rate                                 202159                       # Simulator instruction rate (inst/s)
host_mem_usage                                 686324                       # Number of bytes of host memory used
host_op_rate                                   237942                       # Simulator op (including micro ops) rate (op/s)
host_seconds                                    24.73                       # Real time elapsed on the host
host_tick_rate                            17069420819                       # Simulator tick rate (ticks/s)
sim_freq                                 1000000000000                       # Frequency of simulated ticks
sim_insts                                     5000000                       # Number of instructions simulated
sim_ops                                       5885046                       # Number of ops (including micro ops) simulated
sim_seconds                                  0.422180                       # Number of seconds simulated
sim_ticks                                422180464000                       # Number of ticks simulated
system.cpu.Branches                            221199                       # Number of branches fetched
system.cpu.committedInsts                     5000000                       # Number of instructions committed
system.cpu.committedOps                       5885046                       # Number of ops (including micro ops) committed
system.cpu.dtb.rdAccesses                        4335                       # TLB accesses on read requests
system.cpu.dtb.rdMisses                            16                       # TLB misses on read requests
system.cpu.dtb.wrAccesses                     4343112                       # TLB accesses on write requests
system.cpu.dtb.wrMisses                         16935                       # TLB misses on write requests
system.cpu.idle_fraction                            0                       # Percentage of idle cycles
system.cpu.itb.rdAccesses                           0                       # TLB accesses on read requests
system.cpu.itb.rdMisses                             0                       # TLB misses on read requests
system.cpu.itb.wrAccesses                     7838122                       # TLB accesses on write requests
system.cpu.itb.wrMisses                            47                       # TLB misses on write requests
system.cpu.not_idle_fraction                        1                       # Percentage of non-idle cycles
system.cpu.numCycles                        422180464                       # number of cpu cycles simulated
system.cpu.numWorkItemsCompleted                    0                       # number of work items this cpu completed
system.cpu.numWorkItemsStarted                      0                       # number of work items this cpu started
system.cpu.num_busy_cycles                  422180464                       # Number of busy cycles
system.cpu.num_cc_register_reads              1105476                       # number of times the CC registers were read
system.cpu.num_cc_register_writes              877466                       # number of times the CC registers were written
system.cpu.num_conditional_control_insts       220200                       # number of instructions that are conditional controls
system.cpu.num_fp_alu_accesses                4115986                       # Number of float alu accesses
system.cpu.num_fp_insts                       4115986                       # number of float instructions
system.cpu.num_fp_register_reads              4116497                       # number of times the floating registers were read
system.cpu.num_fp_register_writes                 609                       # number of times the floating registers were written
system.cpu.num_func_calls                         651                       # number of times a function call or return occured
system.cpu.num_idle_cycles                          0                       # Number of idle cycles
system.cpu.num_int_alu_accesses               5892792                       # Number of integer alu accesses
system.cpu.num_int_insts                      5892792                       # number of integer instructions
system.cpu.num_int_register_reads            15049111                       # number of times the integer registers were read
system.cpu.num_int_register_writes            1328668                       # number of times the integer registers were written
system.cpu.num_load_insts                        4320                       # Number of load instructions
system.cpu.num_mem_refs                       4347432                       # number of memory refs
system.cpu.num_store_insts                    4343112                       # Number of store instructions
system.cpu.num_vec_alu_accesses                     0                       # Number of vector alu accesses
system.cpu.num_vec_insts                            0                       # number of vector instructions
system.cpu.num_vec_register_reads                   0                       # number of times the vector registers were read
system.cpu.num_vec_register_writes                  0                       # number of times the vector registers were written
system.cpu.op_class::No_OpClass                   186      0.00%      0.00% # Class of executed instruction
system.cpu.op_class::IntAlu                   1545242     26.22%     26.22% # Class of executed instruction
system.cpu.op_class::IntMult                       29      0.00%     26.22% # Class of executed instruction
system.cpu.op_class::IntDiv                        70      0.00%     26.22% # Class of executed instruction
system.cpu.op_class::FloatAdd                      19      0.00%     26.22% # Class of executed instruction
system.cpu.op_class::FloatCmp                       0      0.00%     26.22% # Class of executed instruction
system.cpu.op_class::FloatCvt                       0      0.00%     26.22% # Class of executed instruction
system.cpu.op_class::FloatMult                      0      0.00%     26.22% # Class of executed instruction
system.cpu.op_class::FloatMultAcc                   0      0.00%     26.22% # Class of executed instruction
system.cpu.op_class::FloatDiv                       0      0.00%     26.22% # Class of executed instruction
system.cpu.op_class::FloatMisc                      0      0.00%     26.22% # Class of executed instruction
system.cpu.op_class::FloatSqrt                      0      0.00%     26.22% # Class of executed instruction
system.cpu.op_class::SimdAdd                        0      0.00%     26.22% # Class of executed instruction
system.cpu.op_class::SimdAddAcc                     0      0.00%     26.22% # Class of executed instruction
system.cpu.op_class::SimdAlu                      152      0.00%     26.23% # Class of executed instruction
system.cpu.op_class::SimdCmp                        0      0.00%     26.23% # Class of executed instruction
system.cpu.op_class::SimdCvt                      158      0.00%     26.23% # Class of executed instruction
system.cpu.op_class::SimdMisc                     221      0.00%     26.23% # Class of executed instruction
system.cpu.op_class::SimdMult                       0      0.00%     26.23% # Class of executed instruction
system.cpu.op_class::SimdMultAcc                    0      0.00%     26.23% # Class of executed instruction
system.cpu.op_class::SimdShift                      0      0.00%     26.23% # Class of executed instruction
system.cpu.op_class::SimdShiftAcc                   0      0.00%     26.23% # Class of executed instruction
system.cpu.op_class::SimdDiv                        0      0.00%     26.23% # Class of executed instruction
system.cpu.op_class::SimdSqrt                       0      0.00%     26.23% # Class of executed instruction
system.cpu.op_class::SimdFloatAdd                   0      0.00%     26.23% # Class of executed instruction
system.cpu.op_class::SimdFloatAlu                   0      0.00%     26.23% # Class of executed instruction
system.cpu.op_class::SimdFloatCmp                   0      0.00%     26.23% # Class of executed instruction
system.cpu.op_class::SimdFloatCvt                   2      0.00%     26.23% # Class of executed instruction
system.cpu.op_class::SimdFloatDiv                   0      0.00%     26.23% # Class of executed instruction
system.cpu.op_class::SimdFloatMisc                  0      0.00%     26.23% # Class of executed instruction
system.cpu.op_class::SimdFloatMult                  0      0.00%     26.23% # Class of executed instruction
system.cpu.op_class::SimdFloatMultAcc               0      0.00%     26.23% # Class of executed instruction
system.cpu.op_class::SimdFloatSqrt                  0      0.00%     26.23% # Class of executed instruction
system.cpu.op_class::SimdReduceAdd                  0      0.00%     26.23% # Class of executed instruction
system.cpu.op_class::SimdReduceAlu                  0      0.00%     26.23% # Class of executed instruction
system.cpu.op_class::SimdReduceCmp                  0      0.00%     26.23% # Class of executed instruction
system.cpu.op_class::SimdFloatReduceAdd             0      0.00%     26.23% # Class of executed instruction
system.cpu.op_class::SimdFloatReduceCmp             0      0.00%     26.23% # Class of executed instruction
system.cpu.op_class::SimdAes                        0      0.00%     26.23% # Class of executed instruction
system.cpu.op_class::SimdAesMix                     0      0.00%     26.23% # Class of executed instruction
system.cpu.op_class::SimdSha1Hash                   0      0.00%     26.23% # Class of executed instruction
system.cpu.op_class::SimdSha1Hash2                  0      0.00%     26.23% # Class of executed instruction
system.cpu.op_class::SimdSha256Hash                 0      0.00%     26.23% # Class of executed instruction
system.cpu.op_class::SimdSha256Hash2                0      0.00%     26.23% # Class of executed instruction
system.cpu.op_class::SimdShaSigma2                  0      0.00%     26.23% # Class of executed instruction
system.cpu.op_class::SimdShaSigma3                  0      0.00%     26.23% # Class of executed instruction
system.cpu.op_class::SimdPredAlu                    0      0.00%     26.23% # Class of executed instruction
system.cpu.op_class::MemRead                     4218      0.07%     26.31% # Class of executed instruction
system.cpu.op_class::MemWrite                  227846      3.87%     30.17% # Class of executed instruction
system.cpu.op_class::FloatMemRead                 102      0.00%     30.17% # Class of executed instruction
system.cpu.op_class::FloatMemWrite            4115266     69.83%    100.00% # Class of executed instruction
system.cpu.op_class::IprAccess                      0      0.00%    100.00% # Class of executed instruction
system.cpu.op_class::InstPrefetch                   0      0.00%    100.00% # Class of executed instruction
system.cpu.op_class::total                    5893511                       # Class of executed instruction
system.cpu.workload.numSyscalls                    19                       # Number of system calls
system.l2bar.snoop_filter.hit_multi_requests            1                       # Number of requests hitting in the snoop filter with multiple (>1) holders of the requested data.
system.l2bar.snoop_filter.hit_multi_snoops            0                       # Number of snoops hitting in the snoop filter with multiple (>1) holders of the requested data.
system.l2bar.snoop_filter.hit_single_requests       541422                       # Number of requests hitting in the snoop filter with a single holder of the requested data.
system.l2bar.snoop_filter.hit_single_snoops          994                       # Number of snoops hitting in the snoop filter with a single holder of the requested data.
system.l2bar.snoop_filter.tot_requests        1083679                       # Total number of requests made to the snoop filter.
system.l2bar.snoop_filter.tot_snoops              994                       # Total number of snoops made to the snoop filter.
system.membus.snoop_filter.hit_multi_requests            0                       # Number of requests hitting in the snoop filter with multiple (>1) holders of the requested data.
system.membus.snoop_filter.hit_multi_snoops            0                       # Number of snoops hitting in the snoop filter with multiple (>1) holders of the requested data.
system.membus.snoop_filter.hit_single_requests       525468                       # Number of requests hitting in the snoop filter with a single holder of the requested data.
system.membus.snoop_filter.hit_single_snoops            0                       # Number of snoops hitting in the snoop filter with a single holder of the requested data.
system.membus.snoop_filter.tot_requests       1067644                       # Total number of requests made to the snoop filter.
system.membus.snoop_filter.tot_snoops               0                       # Total number of snoops made to the snoop filter.
system.membus.trans_dist::ReadResp                595                       # Transaction distribution
system.membus.trans_dist::WritebackDirty       525223                       # Transaction distribution
system.membus.trans_dist::CleanEvict              245                       # Transaction distribution
system.membus.trans_dist::ReadExReq            541581                       # Transaction distribution
system.membus.trans_dist::ReadExResp           541581                       # Transaction distribution
system.membus.trans_dist::ReadSharedReq           595                       # Transaction distribution
system.membus.pkt_count_system.DynamicCache.mem_side::system.mem_delay-slave      1609820                       # Packet count per connected master and slave (bytes)
system.membus.pkt_count_system.DynamicCache.mem_side::total      1609820                       # Packet count per connected master and slave (bytes)
system.membus.pkt_count::total                1609820                       # Packet count per connected master and slave (bytes)
system.membus.pkt_size_system.DynamicCache.mem_side::system.mem_delay-slave     68313536                       # Cumulative packet size per connected master and slave (bytes)
system.membus.pkt_size_system.DynamicCache.mem_side::total     68313536                       # Cumulative packet size per connected master and slave (bytes)
system.membus.pkt_size::total                68313536                       # Cumulative packet size per connected master and slave (bytes)
system.membus.snoops                                0                       # Total snoops (count)
system.membus.snoopTraffic                          0                       # Total snoop traffic (bytes)
system.membus.snoop_fanout::samples            542176                       # Request fanout histogram
system.membus.snoop_fanout::mean                    0                       # Request fanout histogram
system.membus.snoop_fanout::stdev                   0                       # Request fanout histogram
system.membus.snoop_fanout::underflows              0      0.00%      0.00% # Request fanout histogram
system.membus.snoop_fanout::0                  542176    100.00%    100.00% # Request fanout histogram
system.membus.snoop_fanout::1                       0      0.00%    100.00% # Request fanout histogram
system.membus.snoop_fanout::overflows               0      0.00%    100.00% # Request fanout histogram
system.membus.snoop_fanout::min_value               0                       # Request fanout histogram
system.membus.snoop_fanout::max_value               0                       # Request fanout histogram
system.membus.snoop_fanout::total              542176                       # Request fanout histogram
system.membus.reqLayer0.occupancy          3168536000                       # Layer occupancy (ticks)
system.membus.reqLayer0.utilization               0.8                       # Layer utilization (%)
system.membus.respLayer0.occupancy         2868900250                       # Layer occupancy (ticks)
system.membus.respLayer0.utilization              0.7                       # Layer utilization (%)
system.membus.power_state.pwrStateResidencyTicks::UNDEFINED 422180464000                       # Cumulative time (in ticks) in various power states
system.icache.demand_hits::.cpu.inst          7837548                       # number of demand (read+write) hits
system.icache.demand_hits::total              7837548                       # number of demand (read+write) hits
system.icache.overall_hits::.cpu.inst         7837548                       # number of overall hits
system.icache.overall_hits::total             7837548                       # number of overall hits
system.icache.demand_misses::.cpu.inst            574                       # number of demand (read+write) misses
system.icache.demand_misses::total                574                       # number of demand (read+write) misses
system.icache.overall_misses::.cpu.inst           574                       # number of overall misses
system.icache.overall_misses::total               574                       # number of overall misses
system.icache.demand_miss_latency::.cpu.inst    370259000                       # number of demand (read+write) miss cycles
system.icache.demand_miss_latency::total    370259000                       # number of demand (read+write) miss cycles
system.icache.overall_miss_latency::.cpu.inst    370259000                       # number of overall miss cycles
system.icache.overall_miss_latency::total    370259000                       # number of overall miss cycles
system.icache.demand_accesses::.cpu.inst      7838122                       # number of demand (read+write) accesses
system.icache.demand_accesses::total          7838122                       # number of demand (read+write) accesses
system.icache.overall_accesses::.cpu.inst      7838122                       # number of overall (read+write) accesses
system.icache.overall_accesses::total         7838122                       # number of overall (read+write) accesses
system.icache.demand_miss_rate::.cpu.inst     0.000073                       # miss rate for demand accesses
system.icache.demand_miss_rate::total        0.000073                       # miss rate for demand accesses
system.icache.overall_miss_rate::.cpu.inst     0.000073                       # miss rate for overall accesses
system.icache.overall_miss_rate::total       0.000073                       # miss rate for overall accesses
system.icache.demand_avg_miss_latency::.cpu.inst 645050.522648                       # average overall miss latency
system.icache.demand_avg_miss_latency::total 645050.522648                       # average overall miss latency
system.icache.overall_avg_miss_latency::.cpu.inst 645050.522648                       # average overall miss latency
system.icache.overall_avg_miss_latency::total 645050.522648                       # average overall miss latency
system.icache.blocked_cycles::no_mshrs              0                       # number of cycles access was blocked
system.icache.blocked_cycles::no_targets            0                       # number of cycles access was blocked
system.icache.blocked::no_mshrs                     0                       # number of cycles access was blocked
system.icache.blocked::no_targets                   0                       # number of cycles access was blocked
system.icache.avg_blocked_cycles::no_mshrs          nan                       # average number of cycles each access was blocked
system.icache.avg_blocked_cycles::no_targets          nan                       # average number of cycles each access was blocked
system.icache.demand_mshr_misses::.cpu.inst          574                       # number of demand (read+write) MSHR misses
system.icache.demand_mshr_misses::total           574                       # number of demand (read+write) MSHR misses
system.icache.overall_mshr_misses::.cpu.inst          574                       # number of overall MSHR misses
system.icache.overall_mshr_misses::total          574                       # number of overall MSHR misses
system.icache.demand_mshr_miss_latency::.cpu.inst    369111000                       # number of demand (read+write) MSHR miss cycles
system.icache.demand_mshr_miss_latency::total    369111000                       # number of demand (read+write) MSHR miss cycles
system.icache.overall_mshr_miss_latency::.cpu.inst    369111000                       # number of overall MSHR miss cycles
system.icache.overall_mshr_miss_latency::total    369111000                       # number of overall MSHR miss cycles
system.icache.demand_mshr_miss_rate::.cpu.inst     0.000073                       # mshr miss rate for demand accesses
system.icache.demand_mshr_miss_rate::total     0.000073                       # mshr miss rate for demand accesses
system.icache.overall_mshr_miss_rate::.cpu.inst     0.000073                       # mshr miss rate for overall accesses
system.icache.overall_mshr_miss_rate::total     0.000073                       # mshr miss rate for overall accesses
system.icache.demand_avg_mshr_miss_latency::.cpu.inst 643050.522648                       # average overall mshr miss latency
system.icache.demand_avg_mshr_miss_latency::total 643050.522648                       # average overall mshr miss latency
system.icache.overall_avg_mshr_miss_latency::.cpu.inst 643050.522648                       # average overall mshr miss latency
system.icache.overall_avg_mshr_miss_latency::total 643050.522648                       # average overall mshr miss latency
system.icache.replacements                        251                       # number of replacements
system.icache.ReadReq_hits::.cpu.inst         7837548                       # number of ReadReq hits
system.icache.ReadReq_hits::total             7837548                       # number of ReadReq hits
system.icache.ReadReq_misses::.cpu.inst           574                       # number of ReadReq misses
system.icache.ReadReq_misses::total               574                       # number of ReadReq misses
system.icache.ReadReq_miss_latency::.cpu.inst    370259000                       # number of ReadReq miss cycles
system.icache.ReadReq_miss_latency::total    370259000                       # number of ReadReq miss cycles
system.icache.ReadReq_accesses::.cpu.inst      7838122                       # number of ReadReq accesses(hits+misses)
system.icache.ReadReq_accesses::total         7838122                       # number of ReadReq accesses(hits+misses)
system.icache.ReadReq_miss_rate::.cpu.inst     0.000073                       # miss rate for ReadReq accesses
system.icache.ReadReq_miss_rate::total       0.000073                       # miss rate for ReadReq accesses
system.icache.ReadReq_avg_miss_latency::.cpu.inst 645050.522648                       # average ReadReq miss latency
system.icache.ReadReq_avg_miss_latency::total 645050.522648                       # average ReadReq miss latency
system.icache.ReadReq_mshr_misses::.cpu.inst          574                       # number of ReadReq MSHR misses
system.icache.ReadReq_mshr_misses::total          574                       # number of ReadReq MSHR misses
system.icache.ReadReq_mshr_miss_latency::.cpu.inst    369111000                       # number of ReadReq MSHR miss cycles
system.icache.ReadReq_mshr_miss_latency::total    369111000                       # number of ReadReq MSHR miss cycles
system.icache.ReadReq_mshr_miss_rate::.cpu.inst     0.000073                       # mshr miss rate for ReadReq accesses
system.icache.ReadReq_mshr_miss_rate::total     0.000073                       # mshr miss rate for ReadReq accesses
system.icache.ReadReq_avg_mshr_miss_latency::.cpu.inst 643050.522648                       # average ReadReq mshr miss latency
system.icache.ReadReq_avg_mshr_miss_latency::total 643050.522648                       # average ReadReq mshr miss latency
system.icache.power_state.pwrStateResidencyTicks::UNDEFINED 422180464000                       # Cumulative time (in ticks) in various power states
system.icache.tags.tagsinuse               322.793448                       # Cycle average of tags in use
system.icache.tags.total_refs                 7838122                       # Total number of references to valid blocks.
system.icache.tags.sampled_refs                   574                       # Sample count of references to valid blocks.
system.icache.tags.avg_refs              13655.264808                       # Average number of references to valid blocks.
system.icache.tags.warmup_cycle                729000                       # Cycle when the warmup percentage was hit.
system.icache.tags.occ_blocks::.cpu.inst   322.793448                       # Average occupied blocks per requestor
system.icache.tags.occ_percent::.cpu.inst     0.630456                       # Average percentage of cache occupancy
system.icache.tags.occ_percent::total        0.630456                       # Average percentage of cache occupancy
system.icache.tags.occ_task_id_blocks::1024          323                       # Occupied blocks per task id
system.icache.tags.age_task_id_blocks_1024::4          323                       # Occupied blocks per task id
system.icache.tags.occ_task_id_percent::1024     0.630859                       # Percentage of cache occupancy per task id
system.icache.tags.tag_accesses               7838696                       # Number of tag accesses
system.icache.tags.data_accesses              7838696                       # Number of data accesses
system.icache.tags.power_state.pwrStateResidencyTicks::UNDEFINED 422180464000                       # Cumulative time (in ticks) in various power states
system.mem_delay.power_state.pwrStateResidencyTicks::UNDEFINED 422180464000                       # Cumulative time (in ticks) in various power states
system.mem_ctrl.bytes_read::.cpu.inst           32256                       # Number of bytes read from this memory
system.mem_ctrl.bytes_read::.cpu.data        34667008                       # Number of bytes read from this memory
system.mem_ctrl.bytes_read::total            34699264                       # Number of bytes read from this memory
system.mem_ctrl.bytes_inst_read::.cpu.inst        32256                       # Number of instructions bytes read from this memory
system.mem_ctrl.bytes_inst_read::total          32256                       # Number of instructions bytes read from this memory
system.mem_ctrl.bytes_written::.writebacks     33614272                       # Number of bytes written to this memory
system.mem_ctrl.bytes_written::total         33614272                       # Number of bytes written to this memory
system.mem_ctrl.num_reads::.cpu.inst              504                       # Number of read requests responded to by this memory
system.mem_ctrl.num_reads::.cpu.data           541672                       # Number of read requests responded to by this memory
system.mem_ctrl.num_reads::total               542176                       # Number of read requests responded to by this memory
system.mem_ctrl.num_writes::.writebacks        525223                       # Number of write requests responded to by this memory
system.mem_ctrl.num_writes::total              525223                       # Number of write requests responded to by this memory
system.mem_ctrl.bw_read::.cpu.inst              76403                       # Total read bandwidth from this memory (bytes/s)
system.mem_ctrl.bw_read::.cpu.data           82114193                       # Total read bandwidth from this memory (bytes/s)
system.mem_ctrl.bw_read::total               82190596                       # Total read bandwidth from this memory (bytes/s)
system.mem_ctrl.bw_inst_read::.cpu.inst         76403                       # Instruction read bandwidth from this memory (bytes/s)
system.mem_ctrl.bw_inst_read::total             76403                       # Instruction read bandwidth from this memory (bytes/s)
system.mem_ctrl.bw_write::.writebacks        79620624                       # Write bandwidth from this memory (bytes/s)
system.mem_ctrl.bw_write::total              79620624                       # Write bandwidth from this memory (bytes/s)
system.mem_ctrl.bw_total::.writebacks        79620624                       # Total bandwidth to/from this memory (bytes/s)
system.mem_ctrl.bw_total::.cpu.inst             76403                       # Total bandwidth to/from this memory (bytes/s)
system.mem_ctrl.bw_total::.cpu.data          82114193                       # Total bandwidth to/from this memory (bytes/s)
system.mem_ctrl.bw_total::total             161811220                       # Total bandwidth to/from this memory (bytes/s)
system.mem_ctrl.avgPriority_.writebacks::samples    525223.00                       # Average QoS priority value for accepted requests
system.mem_ctrl.avgPriority_.cpu.inst::samples       504.00                       # Average QoS priority value for accepted requests
system.mem_ctrl.avgPriority_.cpu.data::samples    541672.00                       # Average QoS priority value for accepted requests
system.mem_ctrl.priorityMinLatency       0.000000018750                       # per QoS priority minimum request to response latency (s)
system.mem_ctrl.priorityMaxLatency       0.000351738500                       # per QoS priority maximum request to response latency (s)
system.mem_ctrl.numReadWriteTurnArounds         29178                       # Number of turnarounds from READ to WRITE
system.mem_ctrl.numWriteReadTurnArounds         29178                       # Number of turnarounds from WRITE to READ
system.mem_ctrl.numStayReadState              1717995                       # Number of times bus staying in READ state
system.mem_ctrl.numStayWriteState              496026                       # Number of times bus staying in WRITE state
system.mem_ctrl.readReqs                       542176                       # Number of read requests accepted
system.mem_ctrl.writeReqs                      525223                       # Number of write requests accepted
system.mem_ctrl.readBursts                     542176                       # Number of DRAM read bursts, including those serviced by the write queue
system.mem_ctrl.writeBursts                    525223                       # Number of DRAM write bursts, including those merged in the write queue
system.mem_ctrl.servicedByWrQ                       0                       # Number of DRAM read bursts serviced by the write queue
system.mem_ctrl.mergedWrBursts                      0                       # Number of DRAM write bursts merged with an existing one
system.mem_ctrl.neitherReadNorWriteReqs             0                       # Number of requests that are neither read nor write
system.mem_ctrl.perBankRdBursts::0              33995                       # Per bank write bursts
system.mem_ctrl.perBankRdBursts::1              33948                       # Per bank write bursts
system.mem_ctrl.perBankRdBursts::2              33955                       # Per bank write bursts
system.mem_ctrl.perBankRdBursts::3              33966                       # Per bank write bursts
system.mem_ctrl.perBankRdBursts::4              33916                       # Per bank write bursts
system.mem_ctrl.perBankRdBursts::5              33830                       # Per bank write bursts
system.mem_ctrl.perBankRdBursts::6              33819                       # Per bank write bursts
system.mem_ctrl.perBankRdBursts::7              33796                       # Per bank write bursts
system.mem_ctrl.perBankRdBursts::8              33806                       # Per bank write bursts
system.mem_ctrl.perBankRdBursts::9              33872                       # Per bank write bursts
system.mem_ctrl.perBankRdBursts::10             33840                       # Per bank write bursts
system.mem_ctrl.perBankRdBursts::11             33835                       # Per bank write bursts
system.mem_ctrl.perBankRdBursts::12             33831                       # Per bank write bursts
system.mem_ctrl.perBankRdBursts::13             33878                       # Per bank write bursts
system.mem_ctrl.perBankRdBursts::14             33900                       # Per bank write bursts
system.mem_ctrl.perBankRdBursts::15             33989                       # Per bank write bursts
system.mem_ctrl.perBankWrBursts::0              32896                       # Per bank write bursts
system.mem_ctrl.perBankWrBursts::1              32896                       # Per bank write bursts
system.mem_ctrl.perBankWrBursts::2              32896                       # Per bank write bursts
system.mem_ctrl.perBankWrBursts::3              32896                       # Per bank write bursts
system.mem_ctrl.perBankWrBursts::4              32834                       # Per bank write bursts
system.mem_ctrl.perBankWrBursts::5              32768                       # Per bank write bursts
system.mem_ctrl.perBankWrBursts::6              32768                       # Per bank write bursts
system.mem_ctrl.perBankWrBursts::7              32768                       # Per bank write bursts
system.mem_ctrl.perBankWrBursts::8              32770                       # Per bank write bursts
system.mem_ctrl.perBankWrBursts::9              32824                       # Per bank write bursts
system.mem_ctrl.perBankWrBursts::10             32784                       # Per bank write bursts
system.mem_ctrl.perBankWrBursts::11             32798                       # Per bank write bursts
system.mem_ctrl.perBankWrBursts::12             32780                       # Per bank write bursts
system.mem_ctrl.perBankWrBursts::13             32797                       # Per bank write bursts
system.mem_ctrl.perBankWrBursts::14             32833                       # Per bank write bursts
system.mem_ctrl.perBankWrBursts::15             32896                       # Per bank write bursts
system.mem_ctrl.avgRdQLen                        1.00                       # Average read queue length when enqueuing
system.mem_ctrl.avgWrQLen                       23.76                       # Average write queue length when enqueuing
system.mem_ctrl.totQLat                    9935821750                       # Total ticks spent queuing
system.mem_ctrl.totBusLat                  2710880000                       # Total ticks spent in databus transfers
system.mem_ctrl.totMemAccLat              20101621750                       # Total ticks spent from burst creation until serviced by the DRAM
system.mem_ctrl.avgQLat                      18325.82                       # Average queueing delay per DRAM burst
system.mem_ctrl.avgBusLat                     5000.00                       # Average bus latency per DRAM burst
system.mem_ctrl.avgMemAccLat                 37075.82                       # Average memory access latency per DRAM burst
system.mem_ctrl.numRdRetry                          0                       # Number of times read queue was full causing retry
system.mem_ctrl.numWrRetry                          0                       # Number of times write queue was full causing retry
system.mem_ctrl.readRowHits                    453755                       # Number of row buffer hits during reads
system.mem_ctrl.writeRowHits                   466210                       # Number of row buffer hits during writes
system.mem_ctrl.readRowHitRate                  83.69                       # Row buffer hit rate for reads
system.mem_ctrl.writeRowHitRate                 88.76                       # Row buffer hit rate for writes
system.mem_ctrl.readPktSize::0                      0                       # Read request sizes (log2)
system.mem_ctrl.readPktSize::1                      0                       # Read request sizes (log2)
system.mem_ctrl.readPktSize::2                      0                       # Read request sizes (log2)
system.mem_ctrl.readPktSize::3                      0                       # Read request sizes (log2)
system.mem_ctrl.readPktSize::4                      0                       # Read request sizes (log2)
system.mem_ctrl.readPktSize::5                      0                       # Read request sizes (log2)
system.mem_ctrl.readPktSize::6                 542176                       # Read request sizes (log2)
system.mem_ctrl.writePktSize::0                     0                       # Write request sizes (log2)
system.mem_ctrl.writePktSize::1                     0                       # Write request sizes (log2)
system.mem_ctrl.writePktSize::2                     0                       # Write request sizes (log2)
system.mem_ctrl.writePktSize::3                     0                       # Write request sizes (log2)
system.mem_ctrl.writePktSize::4                     0                       # Write request sizes (log2)
system.mem_ctrl.writePktSize::5                     0                       # Write request sizes (log2)
system.mem_ctrl.writePktSize::6                525223                       # Write request sizes (log2)
system.mem_ctrl.rdQLenPdf::0                   542176                       # What read queue length does an incoming req see
system.mem_ctrl.rdQLenPdf::1                        0                       # What read queue length does an incoming req see
system.mem_ctrl.rdQLenPdf::2                        0                       # What read queue length does an incoming req see
system.mem_ctrl.rdQLenPdf::3                        0                       # What read queue length does an incoming req see
system.mem_ctrl.rdQLenPdf::4                        0                       # What read queue length does an incoming req see
system.mem_ctrl.rdQLenPdf::5                        0                       # What read queue length does an incoming req see
system.mem_ctrl.rdQLenPdf::6                        0                       # What read queue length does an incoming req see
system.mem_ctrl.rdQLenPdf::7                        0                       # What read queue length does an incoming req see
system.mem_ctrl.rdQLenPdf::8                        0                       # What read queue length does an incoming req see
system.mem_ctrl.rdQLenPdf::9                        0                       # What read queue length does an incoming req see
system.mem_ctrl.rdQLenPdf::10                       0                       # What read queue length does an incoming req see
system.mem_ctrl.rdQLenPdf::11                       0                       # What read queue length does an incoming req see
system.mem_ctrl.rdQLenPdf::12                       0                       # What read queue length does an incoming req see
system.mem_ctrl.rdQLenPdf::13                       0                       # What read queue length does an incoming req see
system.mem_ctrl.rdQLenPdf::14                       0                       # What read queue length does an incoming req see
system.mem_ctrl.rdQLenPdf::15                       0                       # What read queue length does an incoming req see
system.mem_ctrl.rdQLenPdf::16                       0                       # What read queue length does an incoming req see
system.mem_ctrl.rdQLenPdf::17                       0                       # What read queue length does an incoming req see
system.mem_ctrl.rdQLenPdf::18                       0                       # What read queue length does an incoming req see
system.mem_ctrl.rdQLenPdf::19                       0                       # What read queue length does an incoming req see
system.mem_ctrl.rdQLenPdf::20                       0                       # What read queue length does an incoming req see
system.mem_ctrl.rdQLenPdf::21                       0                       # What read queue length does an incoming req see
system.mem_ctrl.rdQLenPdf::22                       0                       # What read queue length does an incoming req see
system.mem_ctrl.rdQLenPdf::23                       0                       # What read queue length does an incoming req see
system.mem_ctrl.rdQLenPdf::24                       0                       # What read queue length does an incoming req see
system.mem_ctrl.rdQLenPdf::25                       0                       # What read queue length does an incoming req see
system.mem_ctrl.rdQLenPdf::26                       0                       # What read queue length does an incoming req see
system.mem_ctrl.rdQLenPdf::27                       0                       # What read queue length does an incoming req see
system.mem_ctrl.rdQLenPdf::28                       0                       # What read queue length does an incoming req see
system.mem_ctrl.rdQLenPdf::29                       0                       # What read queue length does an incoming req see
system.mem_ctrl.rdQLenPdf::30                       0                       # What read queue length does an incoming req see
system.mem_ctrl.rdQLenPdf::31                       0                       # What read queue length does an incoming req see
system.mem_ctrl.wrQLenPdf::0                        1                       # What write queue length does an incoming req see
system.mem_ctrl.wrQLenPdf::1                        1                       # What write queue length does an incoming req see
system.mem_ctrl.wrQLenPdf::2                        1                       # What write queue length does an incoming req see
system.mem_ctrl.wrQLenPdf::3                        1                       # What write queue length does an incoming req see
system.mem_ctrl.wrQLenPdf::4                        1                       # What write queue length does an incoming req see
system.mem_ctrl.wrQLenPdf::5                        1                       # What write queue length does an incoming req see
system.mem_ctrl.wrQLenPdf::6                        1                       # What write queue length does an incoming req see
system.mem_ctrl.wrQLenPdf::7                        1                       # What write queue length does an incoming req see
system.mem_ctrl.wrQLenPdf::8                        1                       # What write queue length does an incoming req see
system.mem_ctrl.wrQLenPdf::9                        1                       # What write queue length does an incoming req see
system.mem_ctrl.wrQLenPdf::10                       1                       # What write queue length does an incoming req see
system.mem_ctrl.wrQLenPdf::11                       1                       # What write queue length does an incoming req see
system.mem_ctrl.wrQLenPdf::12                       1                       # What write queue length does an incoming req see
system.mem_ctrl.wrQLenPdf::13                       1                       # What write queue length does an incoming req see
system.mem_ctrl.wrQLenPdf::14                       1                       # What write queue length does an incoming req see
system.mem_ctrl.wrQLenPdf::15                   29179                       # What write queue length does an incoming req see
system.mem_ctrl.wrQLenPdf::16                   29179                       # What write queue length does an incoming req see
system.mem_ctrl.wrQLenPdf::17                   29179                       # What write queue length does an incoming req see
system.mem_ctrl.wrQLenPdf::18                   29179                       # What write queue length does an incoming req see
system.mem_ctrl.wrQLenPdf::19                   29178                       # What write queue length does an incoming req see
system.mem_ctrl.wrQLenPdf::20                   29178                       # What write queue length does an incoming req see
system.mem_ctrl.wrQLenPdf::21                   29178                       # What write queue length does an incoming req see
system.mem_ctrl.wrQLenPdf::22                   29178                       # What write queue length does an incoming req see
system.mem_ctrl.wrQLenPdf::23                   29178                       # What write queue length does an incoming req see
system.mem_ctrl.wrQLenPdf::24                   29178                       # What write queue length does an incoming req see
system.mem_ctrl.wrQLenPdf::25                   29178                       # What write queue length does an incoming req see
system.mem_ctrl.wrQLenPdf::26                   29178                       # What write queue length does an incoming req see
system.mem_ctrl.wrQLenPdf::27                   29178                       # What write queue length does an incoming req see
system.mem_ctrl.wrQLenPdf::28                   29178                       # What write queue length does an incoming req see
system.mem_ctrl.wrQLenPdf::29                   29178                       # What write queue length does an incoming req see
system.mem_ctrl.wrQLenPdf::30                   29178                       # What write queue length does an incoming req see
system.mem_ctrl.wrQLenPdf::31                   29178                       # What write queue length does an incoming req see
system.mem_ctrl.wrQLenPdf::32                   29178                       # What write queue length does an incoming req see
system.mem_ctrl.wrQLenPdf::33                       0                       # What write queue length does an incoming req see
system.mem_ctrl.wrQLenPdf::34                       0                       # What write queue length does an incoming req see
system.mem_ctrl.wrQLenPdf::35                       0                       # What write queue length does an incoming req see
system.mem_ctrl.wrQLenPdf::36                       0                       # What write queue length does an incoming req see
system.mem_ctrl.wrQLenPdf::37                       0                       # What write queue length does an incoming req see
system.mem_ctrl.wrQLenPdf::38                       0                       # What write queue length does an incoming req see
system.mem_ctrl.wrQLenPdf::39                       0                       # What write queue length does an incoming req see
system.mem_ctrl.wrQLenPdf::40                       0                       # What write queue length does an incoming req see
system.mem_ctrl.wrQLenPdf::41                       0                       # What write queue length does an incoming req see
system.mem_ctrl.wrQLenPdf::42                       0                       # What write queue length does an incoming req see
system.mem_ctrl.wrQLenPdf::43                       0                       # What write queue length does an incoming req see
system.mem_ctrl.wrQLenPdf::44                       0                       # What write queue length does an incoming req see
system.mem_ctrl.wrQLenPdf::45                       0                       # What write queue length does an incoming req see
system.mem_ctrl.wrQLenPdf::46                       0                       # What write queue length does an incoming req see
system.mem_ctrl.wrQLenPdf::47                       0                       # What write queue length does an incoming req see
system.mem_ctrl.wrQLenPdf::48                       0                       # What write queue length does an incoming req see
system.mem_ctrl.wrQLenPdf::49                       0                       # What write queue length does an incoming req see
system.mem_ctrl.wrQLenPdf::50                       0                       # What write queue length does an incoming req see
system.mem_ctrl.wrQLenPdf::51                       0                       # What write queue length does an incoming req see
system.mem_ctrl.wrQLenPdf::52                       0                       # What write queue length does an incoming req see
system.mem_ctrl.wrQLenPdf::53                       0                       # What write queue length does an incoming req see
system.mem_ctrl.wrQLenPdf::54                       0                       # What write queue length does an incoming req see
system.mem_ctrl.wrQLenPdf::55                       0                       # What write queue length does an incoming req see
system.mem_ctrl.wrQLenPdf::56                       0                       # What write queue length does an incoming req see
system.mem_ctrl.wrQLenPdf::57                       0                       # What write queue length does an incoming req see
system.mem_ctrl.wrQLenPdf::58                       0                       # What write queue length does an incoming req see
system.mem_ctrl.wrQLenPdf::59                       0                       # What write queue length does an incoming req see
system.mem_ctrl.wrQLenPdf::60                       0                       # What write queue length does an incoming req see
system.mem_ctrl.wrQLenPdf::61                       0                       # What write queue length does an incoming req see
system.mem_ctrl.wrQLenPdf::62                       0                       # What write queue length does an incoming req see
system.mem_ctrl.wrQLenPdf::63                       0                       # What write queue length does an incoming req see
system.mem_ctrl.bytesPerActivate::samples       147414                       # Bytes accessed per row activation
system.mem_ctrl.bytesPerActivate::mean     463.403259                       # Bytes accessed per row activation
system.mem_ctrl.bytesPerActivate::gmean    330.408846                       # Bytes accessed per row activation
system.mem_ctrl.bytesPerActivate::stdev    330.946113                       # Bytes accessed per row activation
system.mem_ctrl.bytesPerActivate::0-127         14952     10.14%     10.14% # Bytes accessed per row activation
system.mem_ctrl.bytesPerActivate::128-255        40205     27.27%     37.42% # Bytes accessed per row activation
system.mem_ctrl.bytesPerActivate::256-383        13949      9.46%     46.88% # Bytes accessed per row activation
system.mem_ctrl.bytesPerActivate::384-511        13374      9.07%     55.95% # Bytes accessed per row activation
system.mem_ctrl.bytesPerActivate::512-639        13132      8.91%     64.86% # Bytes accessed per row activation
system.mem_ctrl.bytesPerActivate::640-767        23536     15.97%     80.83% # Bytes accessed per row activation
system.mem_ctrl.bytesPerActivate::768-895          912      0.62%     81.44% # Bytes accessed per row activation
system.mem_ctrl.bytesPerActivate::896-1023         1381      0.94%     82.38% # Bytes accessed per row activation
system.mem_ctrl.bytesPerActivate::1024-1151        25973     17.62%    100.00% # Bytes accessed per row activation
system.mem_ctrl.bytesPerActivate::total        147414                       # Bytes accessed per row activation
system.mem_ctrl.rdPerTurnAround::samples        29178                       # Reads before turning the bus around for writes
system.mem_ctrl.rdPerTurnAround::mean       18.581534                       # Reads before turning the bus around for writes
system.mem_ctrl.rdPerTurnAround::gmean      18.010833                       # Reads before turning the bus around for writes
system.mem_ctrl.rdPerTurnAround::stdev      96.200192                       # Reads before turning the bus around for writes
system.mem_ctrl.rdPerTurnAround::0-1023         29177    100.00%    100.00% # Reads before turning the bus around for writes
system.mem_ctrl.rdPerTurnAround::16384-17407            1      0.00%    100.00% # Reads before turning the bus around for writes
system.mem_ctrl.rdPerTurnAround::total          29178                       # Reads before turning the bus around for writes
system.mem_ctrl.wrPerTurnAround::samples        29178                       # Writes before turning the bus around for reads
system.mem_ctrl.wrPerTurnAround::mean              18                       # Writes before turning the bus around for reads
system.mem_ctrl.wrPerTurnAround::gmean      18.000000                       # Writes before turning the bus around for reads
system.mem_ctrl.wrPerTurnAround::18             29178    100.00%    100.00% # Writes before turning the bus around for reads
system.mem_ctrl.wrPerTurnAround::total          29178                       # Writes before turning the bus around for reads
system.mem_ctrl.bytesReadDRAM                34699264                       # Total number of bytes read from DRAM
system.mem_ctrl.bytesReadWrQ                        0                       # Total number of bytes read from write queue
system.mem_ctrl.bytesWritten                 33613056                       # Total number of bytes written to DRAM
system.mem_ctrl.bytesReadSys                 34699264                       # Total read bytes from the system interface side
system.mem_ctrl.bytesWrittenSys              33614272                       # Total written bytes from the system interface side
system.mem_ctrl.avgRdBW                         82.19                       # Average DRAM read bandwidth in MiByte/s
system.mem_ctrl.avgWrBW                         79.62                       # Average achieved write bandwidth in MiByte/s
system.mem_ctrl.avgRdBWSys                      82.19                       # Average system read bandwidth in MiByte/s
system.mem_ctrl.avgWrBWSys                      79.62                       # Average system write bandwidth in MiByte/s
system.mem_ctrl.peakBW                       12800.00                       # Theoretical peak bandwidth in MiByte/s
system.mem_ctrl.busUtil                          1.26                       # Data bus utilization in percentage
system.mem_ctrl.busUtilRead                      0.64                       # Data bus utilization in percentage for reads
system.mem_ctrl.busUtilWrite                     0.62                       # Data bus utilization in percentage for writes
system.mem_ctrl.totGap                   422179775000                       # Total gap between requests
system.mem_ctrl.avgGap                      395521.99                       # Average gap between requests
system.mem_ctrl.masterReadBytes::.cpu.inst        32256                       # Per-master bytes read from memory
system.mem_ctrl.masterReadBytes::.cpu.data     34667008                       # Per-master bytes read from memory
system.mem_ctrl.masterWriteBytes::.writebacks     33613056                       # Per-master bytes write to memory
system.mem_ctrl.masterReadRate::.cpu.inst 76403.345845012867                       # Per-master bytes read from memory rate (Bytes/sec)
system.mem_ctrl.masterReadRate::.cpu.data 82114192.759047240019                       # Per-master bytes read from memory rate (Bytes/sec)
system.mem_ctrl.masterWriteRate::.writebacks 79617743.752349466085                       # Per-master bytes write to memory rate (Bytes/sec)
system.mem_ctrl.masterReadAccesses::.cpu.inst          504                       # Per-master read serviced memory accesses
system.mem_ctrl.masterReadAccesses::.cpu.data       541672                       # Per-master read serviced memory accesses
system.mem_ctrl.masterWriteAccesses::.writebacks       525223                       # Per-master write serviced memory accesses
system.mem_ctrl.masterReadTotalLat::.cpu.inst     16400500                       # Per-master read total memory access latency
system.mem_ctrl.masterReadTotalLat::.cpu.data  20085221250                       # Per-master read total memory access latency
system.mem_ctrl.masterWriteTotalLat::.writebacks 9671605919250                       # Per-master write total memory access latency
system.mem_ctrl.masterReadAvgLat::.cpu.inst     32540.67                       # Per-master read average memory access latency
system.mem_ctrl.masterReadAvgLat::.cpu.data     37080.04                       # Per-master read average memory access latency
system.mem_ctrl.masterWriteAvgLat::.writebacks  18414284.83                       # Per-master write average memory access latency
system.mem_ctrl.pageHitRate                     86.19                       # Row buffer hit rate, read and write combined
system.mem_ctrl.rank1.actEnergy             526153740                       # Energy for activate commands per rank (pJ)
system.mem_ctrl.rank1.preEnergy             279657345                       # Energy for precharge commands per rank (pJ)
system.mem_ctrl.rank1.readEnergy           1934590140                       # Energy for read commands per rank (pJ)
system.mem_ctrl.rank1.writeEnergy          1370156040                       # Energy for write commands per rank (pJ)
system.mem_ctrl.rank1.refreshEnergy      33326395440.000004                       # Energy for refresh commands per rank (pJ)
system.mem_ctrl.rank1.actBackEnergy       99713359260                       # Energy for active background per rank (pJ)
system.mem_ctrl.rank1.preBackEnergy       78148153920                       # Energy for precharge background per rank (pJ)
system.mem_ctrl.rank1.actPowerDownEnergy            0                       # Energy for active power-down per rank (pJ)
system.mem_ctrl.rank1.prePowerDownEnergy            0                       # Energy for precharge power-down per rank (pJ)
system.mem_ctrl.rank1.selfRefreshEnergy             0                       # Energy for self refresh per rank (pJ)
system.mem_ctrl.rank1.totalEnergy        215298465885                       # Total energy per rank (pJ)
system.mem_ctrl.rank1.averagePower         509.967856                       # Core power per rank (mW)
system.mem_ctrl.rank1.totalIdleTime                 0                       # Total Idle time Per DRAM Rank
system.mem_ctrl.rank1.memoryStateTime::IDLE 201912131750                       # Time in different power states
system.mem_ctrl.rank1.memoryStateTime::REF  14097460000                       # Time in different power states
system.mem_ctrl.rank1.memoryStateTime::SREF            0                       # Time in different power states
system.mem_ctrl.rank1.memoryStateTime::PRE_PDN            0                       # Time in different power states
system.mem_ctrl.rank1.memoryStateTime::ACT 206170872250                       # Time in different power states
system.mem_ctrl.rank1.memoryStateTime::ACT_PDN            0                       # Time in different power states
system.mem_ctrl.rank0.actEnergy             526389360                       # Energy for activate commands per rank (pJ)
system.mem_ctrl.rank0.preEnergy             279778785                       # Energy for precharge commands per rank (pJ)
system.mem_ctrl.rank0.readEnergy           1936546500                       # Energy for read commands per rank (pJ)
system.mem_ctrl.rank0.writeEnergy          1371408840                       # Energy for write commands per rank (pJ)
system.mem_ctrl.rank0.refreshEnergy      33326395440.000004                       # Energy for refresh commands per rank (pJ)
system.mem_ctrl.rank0.actBackEnergy       99787113270                       # Energy for active background per rank (pJ)
system.mem_ctrl.rank0.preBackEnergy       78086045280                       # Energy for precharge background per rank (pJ)
system.mem_ctrl.rank0.actPowerDownEnergy            0                       # Energy for active power-down per rank (pJ)
system.mem_ctrl.rank0.prePowerDownEnergy            0                       # Energy for precharge power-down per rank (pJ)
system.mem_ctrl.rank0.selfRefreshEnergy             0                       # Energy for self refresh per rank (pJ)
system.mem_ctrl.rank0.totalEnergy        215313677475                       # Total energy per rank (pJ)
system.mem_ctrl.rank0.averagePower         510.003887                       # Core power per rank (mW)
system.mem_ctrl.rank0.totalIdleTime                 0                       # Total Idle time Per DRAM Rank
system.mem_ctrl.rank0.memoryStateTime::IDLE 201749385250                       # Time in different power states
system.mem_ctrl.rank0.memoryStateTime::REF  14097460000                       # Time in different power states
system.mem_ctrl.rank0.memoryStateTime::SREF            0                       # Time in different power states
system.mem_ctrl.rank0.memoryStateTime::PRE_PDN            0                       # Time in different power states
system.mem_ctrl.rank0.memoryStateTime::ACT 206333618750                       # Time in different power states
system.mem_ctrl.rank0.memoryStateTime::ACT_PDN            0                       # Time in different power states
system.mem_ctrl.power_state.pwrStateResidencyTicks::UNDEFINED 422180464000                       # Cumulative time (in ticks) in various power states
system.l2cache.demand_hits::.cpu.inst              69                       # number of demand (read+write) hits
system.l2cache.demand_hits::.cpu.data              11                       # number of demand (read+write) hits
system.l2cache.demand_hits::total                  80                       # number of demand (read+write) hits
system.l2cache.overall_hits::.cpu.inst             69                       # number of overall hits
system.l2cache.overall_hits::.cpu.data             11                       # number of overall hits
system.l2cache.overall_hits::total                 80                       # number of overall hits
system.l2cache.demand_misses::.cpu.inst           505                       # number of demand (read+write) misses
system.l2cache.demand_misses::.cpu.data        541672                       # number of demand (read+write) misses
system.l2cache.demand_misses::total            542177                       # number of demand (read+write) misses
system.l2cache.overall_misses::.cpu.inst          505                       # number of overall misses
system.l2cache.overall_misses::.cpu.data       541672                       # number of overall misses
system.l2cache.overall_misses::total           542177                       # number of overall misses
system.l2cache.demand_miss_latency::.cpu.inst    365937000                       # number of demand (read+write) miss cycles
system.l2cache.demand_miss_latency::.cpu.data 395831851000                       # number of demand (read+write) miss cycles
system.l2cache.demand_miss_latency::total 396197788000                       # number of demand (read+write) miss cycles
system.l2cache.overall_miss_latency::.cpu.inst    365937000                       # number of overall miss cycles
system.l2cache.overall_miss_latency::.cpu.data 395831851000                       # number of overall miss cycles
system.l2cache.overall_miss_latency::total 396197788000                       # number of overall miss cycles
system.l2cache.demand_accesses::.cpu.inst          574                       # number of demand (read+write) accesses
system.l2cache.demand_accesses::.cpu.data       541683                       # number of demand (read+write) accesses
system.l2cache.demand_accesses::total          542257                       # number of demand (read+write) accesses
system.l2cache.overall_accesses::.cpu.inst          574                       # number of overall (read+write) accesses
system.l2cache.overall_accesses::.cpu.data       541683                       # number of overall (read+write) accesses
system.l2cache.overall_accesses::total         542257                       # number of overall (read+write) accesses
system.l2cache.demand_miss_rate::.cpu.inst     0.879791                       # miss rate for demand accesses
system.l2cache.demand_miss_rate::.cpu.data     0.999980                       # miss rate for demand accesses
system.l2cache.demand_miss_rate::total       0.999852                       # miss rate for demand accesses
system.l2cache.overall_miss_rate::.cpu.inst     0.879791                       # miss rate for overall accesses
system.l2cache.overall_miss_rate::.cpu.data     0.999980                       # miss rate for overall accesses
system.l2cache.overall_miss_rate::total      0.999852                       # miss rate for overall accesses
system.l2cache.demand_avg_miss_latency::.cpu.inst 724627.722772                       # average overall miss latency
system.l2cache.demand_avg_miss_latency::.cpu.data 730759.298985                       # average overall miss latency
system.l2cache.demand_avg_miss_latency::total 730753.587850                       # average overall miss latency
system.l2cache.overall_avg_miss_latency::.cpu.inst 724627.722772                       # average overall miss latency
system.l2cache.overall_avg_miss_latency::.cpu.data 730759.298985                       # average overall miss latency
system.l2cache.overall_avg_miss_latency::total 730753.587850                       # average overall miss latency
system.l2cache.blocked_cycles::no_mshrs             0                       # number of cycles access was blocked
system.l2cache.blocked_cycles::no_targets            0                       # number of cycles access was blocked
system.l2cache.blocked::no_mshrs                    0                       # number of cycles access was blocked
system.l2cache.blocked::no_targets                  0                       # number of cycles access was blocked
system.l2cache.avg_blocked_cycles::no_mshrs          nan                       # average number of cycles each access was blocked
system.l2cache.avg_blocked_cycles::no_targets          nan                       # average number of cycles each access was blocked
system.l2cache.writebacks::.writebacks         537512                       # number of writebacks
system.l2cache.writebacks::total               537512                       # number of writebacks
system.l2cache.demand_mshr_misses::.cpu.inst          505                       # number of demand (read+write) MSHR misses
system.l2cache.demand_mshr_misses::.cpu.data       541672                       # number of demand (read+write) MSHR misses
system.l2cache.demand_mshr_misses::total       542177                       # number of demand (read+write) MSHR misses
system.l2cache.overall_mshr_misses::.cpu.inst          505                       # number of overall MSHR misses
system.l2cache.overall_mshr_misses::.cpu.data       541672                       # number of overall MSHR misses
system.l2cache.overall_mshr_misses::total       542177                       # number of overall MSHR misses
system.l2cache.demand_mshr_miss_latency::.cpu.inst    355837000                       # number of demand (read+write) MSHR miss cycles
system.l2cache.demand_mshr_miss_latency::.cpu.data 384998411000                       # number of demand (read+write) MSHR miss cycles
system.l2cache.demand_mshr_miss_latency::total 385354248000                       # number of demand (read+write) MSHR miss cycles
system.l2cache.overall_mshr_miss_latency::.cpu.inst    355837000                       # number of overall MSHR miss cycles
system.l2cache.overall_mshr_miss_latency::.cpu.data 384998411000                       # number of overall MSHR miss cycles
system.l2cache.overall_mshr_miss_latency::total 385354248000                       # number of overall MSHR miss cycles
system.l2cache.demand_mshr_miss_rate::.cpu.inst     0.879791                       # mshr miss rate for demand accesses
system.l2cache.demand_mshr_miss_rate::.cpu.data     0.999980                       # mshr miss rate for demand accesses
system.l2cache.demand_mshr_miss_rate::total     0.999852                       # mshr miss rate for demand accesses
system.l2cache.overall_mshr_miss_rate::.cpu.inst     0.879791                       # mshr miss rate for overall accesses
system.l2cache.overall_mshr_miss_rate::.cpu.data     0.999980                       # mshr miss rate for overall accesses
system.l2cache.overall_mshr_miss_rate::total     0.999852                       # mshr miss rate for overall accesses
system.l2cache.demand_avg_mshr_miss_latency::.cpu.inst 704627.722772                       # average overall mshr miss latency
system.l2cache.demand_avg_mshr_miss_latency::.cpu.data 710759.298985                       # average overall mshr miss latency
system.l2cache.demand_avg_mshr_miss_latency::total 710753.587850                       # average overall mshr miss latency
system.l2cache.overall_avg_mshr_miss_latency::.cpu.inst 704627.722772                       # average overall mshr miss latency
system.l2cache.overall_avg_mshr_miss_latency::.cpu.data 710759.298985                       # average overall mshr miss latency
system.l2cache.overall_avg_mshr_miss_latency::total 710753.587850                       # average overall mshr miss latency
system.l2cache.replacements                    538092                       # number of replacements
system.l2cache.WritebackDirty_hits::.writebacks       541107                       # number of WritebackDirty hits
system.l2cache.WritebackDirty_hits::total       541107                       # number of WritebackDirty hits
system.l2cache.WritebackDirty_accesses::.writebacks       541107                       # number of WritebackDirty accesses(hits+misses)
system.l2cache.WritebackDirty_accesses::total       541107                       # number of WritebackDirty accesses(hits+misses)
system.l2cache.CleanEvict_mshr_misses::.writebacks           11                       # number of CleanEvict MSHR misses
system.l2cache.CleanEvict_mshr_misses::total           11                       # number of CleanEvict MSHR misses
system.l2cache.CleanEvict_mshr_miss_rate::.writebacks          inf                       # mshr miss rate for CleanEvict accesses
system.l2cache.CleanEvict_mshr_miss_rate::total          inf                       # mshr miss rate for CleanEvict accesses
system.l2cache.ReadExReq_hits::.cpu.data            2                       # number of ReadExReq hits
system.l2cache.ReadExReq_hits::total                2                       # number of ReadExReq hits
system.l2cache.ReadExReq_misses::.cpu.data       541581                       # number of ReadExReq misses
system.l2cache.ReadExReq_misses::total         541581                       # number of ReadExReq misses
system.l2cache.ReadExReq_miss_latency::.cpu.data 395765580000                       # number of ReadExReq miss cycles
system.l2cache.ReadExReq_miss_latency::total 395765580000                       # number of ReadExReq miss cycles
system.l2cache.ReadExReq_accesses::.cpu.data       541583                       # number of ReadExReq accesses(hits+misses)
system.l2cache.ReadExReq_accesses::total       541583                       # number of ReadExReq accesses(hits+misses)
system.l2cache.ReadExReq_miss_rate::.cpu.data     0.999996                       # miss rate for ReadExReq accesses
system.l2cache.ReadExReq_miss_rate::total     0.999996                       # miss rate for ReadExReq accesses
system.l2cache.ReadExReq_avg_miss_latency::.cpu.data 730759.720153                       # average ReadExReq miss latency
system.l2cache.ReadExReq_avg_miss_latency::total 730759.720153                       # average ReadExReq miss latency
system.l2cache.ReadExReq_mshr_misses::.cpu.data       541581                       # number of ReadExReq MSHR misses
system.l2cache.ReadExReq_mshr_misses::total       541581                       # number of ReadExReq MSHR misses
system.l2cache.ReadExReq_mshr_miss_latency::.cpu.data 384933960000                       # number of ReadExReq MSHR miss cycles
system.l2cache.ReadExReq_mshr_miss_latency::total 384933960000                       # number of ReadExReq MSHR miss cycles
system.l2cache.ReadExReq_mshr_miss_rate::.cpu.data     0.999996                       # mshr miss rate for ReadExReq accesses
system.l2cache.ReadExReq_mshr_miss_rate::total     0.999996                       # mshr miss rate for ReadExReq accesses
system.l2cache.ReadExReq_avg_mshr_miss_latency::.cpu.data 710759.720153                       # average ReadExReq mshr miss latency
system.l2cache.ReadExReq_avg_mshr_miss_latency::total 710759.720153                       # average ReadExReq mshr miss latency
system.l2cache.ReadSharedReq_hits::.cpu.inst           69                       # number of ReadSharedReq hits
system.l2cache.ReadSharedReq_hits::.cpu.data            9                       # number of ReadSharedReq hits
system.l2cache.ReadSharedReq_hits::total           78                       # number of ReadSharedReq hits
system.l2cache.ReadSharedReq_misses::.cpu.inst          505                       # number of ReadSharedReq misses
system.l2cache.ReadSharedReq_misses::.cpu.data           91                       # number of ReadSharedReq misses
system.l2cache.ReadSharedReq_misses::total          596                       # number of ReadSharedReq misses
system.l2cache.ReadSharedReq_miss_latency::.cpu.inst    365937000                       # number of ReadSharedReq miss cycles
system.l2cache.ReadSharedReq_miss_latency::.cpu.data     66271000                       # number of ReadSharedReq miss cycles
system.l2cache.ReadSharedReq_miss_latency::total    432208000                       # number of ReadSharedReq miss cycles
system.l2cache.ReadSharedReq_accesses::.cpu.inst          574                       # number of ReadSharedReq accesses(hits+misses)
system.l2cache.ReadSharedReq_accesses::.cpu.data          100                       # number of ReadSharedReq accesses(hits+misses)
system.l2cache.ReadSharedReq_accesses::total          674                       # number of ReadSharedReq accesses(hits+misses)
system.l2cache.ReadSharedReq_miss_rate::.cpu.inst     0.879791                       # miss rate for ReadSharedReq accesses
system.l2cache.ReadSharedReq_miss_rate::.cpu.data     0.910000                       # miss rate for ReadSharedReq accesses
system.l2cache.ReadSharedReq_miss_rate::total     0.884273                       # miss rate for ReadSharedReq accesses
system.l2cache.ReadSharedReq_avg_miss_latency::.cpu.inst 724627.722772                       # average ReadSharedReq miss latency
system.l2cache.ReadSharedReq_avg_miss_latency::.cpu.data 728252.747253                       # average ReadSharedReq miss latency
system.l2cache.ReadSharedReq_avg_miss_latency::total 725181.208054                       # average ReadSharedReq miss latency
system.l2cache.ReadSharedReq_mshr_misses::.cpu.inst          505                       # number of ReadSharedReq MSHR misses
system.l2cache.ReadSharedReq_mshr_misses::.cpu.data           91                       # number of ReadSharedReq MSHR misses
system.l2cache.ReadSharedReq_mshr_misses::total          596                       # number of ReadSharedReq MSHR misses
system.l2cache.ReadSharedReq_mshr_miss_latency::.cpu.inst    355837000                       # number of ReadSharedReq MSHR miss cycles
system.l2cache.ReadSharedReq_mshr_miss_latency::.cpu.data     64451000                       # number of ReadSharedReq MSHR miss cycles
system.l2cache.ReadSharedReq_mshr_miss_latency::total    420288000                       # number of ReadSharedReq MSHR miss cycles
system.l2cache.ReadSharedReq_mshr_miss_rate::.cpu.inst     0.879791                       # mshr miss rate for ReadSharedReq accesses
system.l2cache.ReadSharedReq_mshr_miss_rate::.cpu.data     0.910000                       # mshr miss rate for ReadSharedReq accesses
system.l2cache.ReadSharedReq_mshr_miss_rate::total     0.884273                       # mshr miss rate for ReadSharedReq accesses
system.l2cache.ReadSharedReq_avg_mshr_miss_latency::.cpu.inst 704627.722772                       # average ReadSharedReq mshr miss latency
system.l2cache.ReadSharedReq_avg_mshr_miss_latency::.cpu.data 708252.747253                       # average ReadSharedReq mshr miss latency
system.l2cache.ReadSharedReq_avg_mshr_miss_latency::total 705181.208054                       # average ReadSharedReq mshr miss latency
system.l2cache.power_state.pwrStateResidencyTicks::UNDEFINED 422180464000                       # Cumulative time (in ticks) in various power states
system.l2cache.tags.tagsinuse             4078.313549                       # Cycle average of tags in use
system.l2cache.tags.total_refs                1083667                       # Total number of references to valid blocks.
system.l2cache.tags.sampled_refs               542188                       # Sample count of references to valid blocks.
system.l2cache.tags.avg_refs                 1.998692                       # Average number of references to valid blocks.
system.l2cache.tags.warmup_cycle               708000                       # Cycle when the warmup percentage was hit.
system.l2cache.tags.occ_blocks::.writebacks     0.072893                       # Average occupied blocks per requestor
system.l2cache.tags.occ_blocks::.cpu.inst     2.074338                       # Average occupied blocks per requestor
system.l2cache.tags.occ_blocks::.cpu.data  4076.166319                       # Average occupied blocks per requestor
system.l2cache.tags.occ_percent::.writebacks     0.000018                       # Average percentage of cache occupancy
system.l2cache.tags.occ_percent::.cpu.inst     0.000506                       # Average percentage of cache occupancy
system.l2cache.tags.occ_percent::.cpu.data     0.995158                       # Average percentage of cache occupancy
system.l2cache.tags.occ_percent::total       0.995682                       # Average percentage of cache occupancy
system.l2cache.tags.occ_task_id_blocks::1024         4096                       # Occupied blocks per task id
system.l2cache.tags.age_task_id_blocks_1024::0           13                       # Occupied blocks per task id
system.l2cache.tags.age_task_id_blocks_1024::1          116                       # Occupied blocks per task id
system.l2cache.tags.age_task_id_blocks_1024::2         1156                       # Occupied blocks per task id
system.l2cache.tags.age_task_id_blocks_1024::3         2811                       # Occupied blocks per task id
system.l2cache.tags.occ_task_id_percent::1024            1                       # Percentage of cache occupancy per task id
system.l2cache.tags.tag_accesses              1625866                       # Number of tag accesses
system.l2cache.tags.data_accesses             1625866                       # Number of data accesses
system.l2cache.tags.power_state.pwrStateResidencyTicks::UNDEFINED 422180464000                       # Cumulative time (in ticks) in various power states
system.clk_domain.clock                          1000                       # Clock period in ticks
system.clk_domain.voltage_domain.voltage            1                       # Voltage in Volts
system.l3Dram.demand_hits::.cpu.inst                1                       # number of demand (read+write) hits
system.l3Dram.demand_hits::total                    1                       # number of demand (read+write) hits
system.l3Dram.overall_hits::.cpu.inst               1                       # number of overall hits
system.l3Dram.overall_hits::total                   1                       # number of overall hits
system.l3Dram.demand_misses::.cpu.inst            504                       # number of demand (read+write) misses
system.l3Dram.demand_misses::.cpu.data         541672                       # number of demand (read+write) misses
system.l3Dram.demand_misses::total             542176                       # number of demand (read+write) misses
[...]
system.DynamicCache.overall_miss_latency::.cpu.inst    293773000                       # number of overall miss cycles
system.DynamicCache.overall_miss_latency::.cpu.data 318372755000                       # number of overall miss cycles
system.DynamicCache.overall_miss_latency::total 318666528000                       # number of overall miss cycles
system.DynamicCache.demand_accesses::.cpu.inst          504                       # number of demand (read+write) accesses
system.DynamicCache.demand_accesses::.cpu.data       541672                       # number of demand (read+write) accesses
system.DynamicCache.demand_accesses::total       542176                       # number of demand (read+write) accesses
system.DynamicCache.overall_accesses::.cpu.inst          504                       # number of overall (read+write) accesses
system.DynamicCache.overall_accesses::.cpu.data       541672                       # number of overall (read+write) accesses
system.DynamicCache.overall_accesses::total       542176                       # number of overall (read+write) accesses
system.DynamicCache.demand_miss_rate::.cpu.inst            1                       # miss rate for demand accesses
system.DynamicCache.demand_miss_rate::.cpu.data            1                       # miss rate for demand accesses
system.DynamicCache.demand_miss_rate::total            1                       # miss rate for demand accesses
system.DynamicCache.overall_miss_rate::.cpu.inst            1                       # miss rate for overall accesses
system.DynamicCache.overall_miss_rate::.cpu.data            1                       # miss rate for overall accesses
system.DynamicCache.overall_miss_rate::total            1                       # miss rate for overall accesses
system.DynamicCache.demand_avg_miss_latency::.cpu.inst 582882.936508                       # average overall miss latency
system.DynamicCache.demand_avg_miss_latency::.cpu.data 587759.298985                       # average overall miss latency
system.DynamicCache.demand_avg_miss_latency::total 587754.765980                       # average overall miss latency
system.DynamicCache.overall_avg_miss_latency::.cpu.inst 582882.936508                       # average overall miss latency
system.DynamicCache.overall_avg_miss_latency::.cpu.data 587759.298985                       # average overall miss latency
system.DynamicCache.overall_avg_miss_latency::total 587754.765980                       # average overall miss latency
system.DynamicCache.blocked_cycles::no_mshrs            0                       # number of cycles access was blocked
system.DynamicCache.blocked_cycles::no_targets            0                       # number of cycles access was blocked
system.DynamicCache.blocked::no_mshrs               0                       # number of cycles access was blocked
system.DynamicCache.blocked::no_targets             0                       # number of cycles access was blocked
system.DynamicCache.avg_blocked_cycles::no_mshrs          nan                       # average number of cycles each access was blocked
system.DynamicCache.avg_blocked_cycles::no_targets          nan                       # average number of cycles each access was blocked
system.DynamicCache.writebacks::.writebacks       525224                       # number of writebacks
system.DynamicCache.writebacks::total          525224                       # number of writebacks
system.DynamicCache.demand_mshr_misses::.cpu.inst          504                       # number of demand (read+write) MSHR misses
system.DynamicCache.demand_mshr_misses::.cpu.data       541672                       # number of demand (read+write) MSHR misses
system.DynamicCache.demand_mshr_misses::total       542176                       # number of demand (read+write) MSHR misses
system.DynamicCache.overall_mshr_misses::.cpu.inst          504                       # number of overall MSHR misses
system.DynamicCache.overall_mshr_misses::.cpu.data       541672                       # number of overall MSHR misses
system.DynamicCache.overall_mshr_misses::total       542176                       # number of overall MSHR misses
system.DynamicCache.demand_mshr_miss_latency::.cpu.inst    228253000                       # number of demand (read+write) MSHR miss cycles
system.DynamicCache.demand_mshr_miss_latency::.cpu.data 247955395000                       # number of demand (read+write) MSHR miss cycles
system.DynamicCache.demand_mshr_miss_latency::total 248183648000                       # number of demand (read+write) MSHR miss cycles
system.DynamicCache.overall_mshr_miss_latency::.cpu.inst    228253000                       # number of overall MSHR miss cycles
system.DynamicCache.overall_mshr_miss_latency::.cpu.data 247955395000                       # number of overall MSHR miss cycles
system.DynamicCache.overall_mshr_miss_latency::total 248183648000                       # number of overall MSHR miss cycles
system.DynamicCache.demand_mshr_miss_rate::.cpu.inst            1                       # mshr miss rate for demand accesses
system.DynamicCache.demand_mshr_miss_rate::.cpu.data            1                       # mshr miss rate for demand accesses
system.DynamicCache.demand_mshr_miss_rate::total            1                       # mshr miss rate for demand accesses
system.DynamicCache.overall_mshr_miss_rate::.cpu.inst            1                       # mshr miss rate for overall accesses
system.DynamicCache.overall_mshr_miss_rate::.cpu.data            1                       # mshr miss rate for overall accesses
system.DynamicCache.overall_mshr_miss_rate::total            1                       # mshr miss rate for overall accesses
system.DynamicCache.demand_avg_mshr_miss_latency::.cpu.inst 452882.936508                       # average overall mshr miss latency
system.DynamicCache.demand_avg_mshr_miss_latency::.cpu.data 457759.298985                       # average overall mshr miss latency
system.DynamicCache.demand_avg_mshr_miss_latency::total 457754.765980                       # average overall mshr miss latency
system.DynamicCache.overall_avg_mshr_miss_latency::.cpu.inst 452882.936508                       # average overall mshr miss latency
system.DynamicCache.overall_avg_mshr_miss_latency::.cpu.data 457759.298985                       # average overall mshr miss latency
system.DynamicCache.overall_avg_mshr_miss_latency::total 457754.765980                       # average overall mshr miss latency
system.DynamicCache.replacements              1051257                       # number of replacements
system.DynamicCache.WritebackDirty_hits::.writebacks       533416                       # number of WritebackDirty hits
system.DynamicCache.WritebackDirty_hits::total       533416                       # number of WritebackDirty hits
system.DynamicCache.WritebackDirty_accesses::.writebacks       533416                       # number of WritebackDirty accesses(hits+misses)
system.DynamicCache.WritebackDirty_accesses::total       533416                       # number of WritebackDirty accesses(hits+misses)
system.DynamicCache.ReadExReq_misses::.cpu.data       541581                       # number of ReadExReq misses
system.DynamicCache.ReadExReq_misses::total       541581                       # number of ReadExReq misses
system.DynamicCache.ReadExReq_miss_latency::.cpu.data 318319497000                       # number of ReadExReq miss cycles
system.DynamicCache.ReadExReq_miss_latency::total 318319497000                       # number of ReadExReq miss cycles
system.DynamicCache.ReadExReq_accesses::.cpu.data       541581                       # number of ReadExReq accesses(hits+misses)
system.DynamicCache.ReadExReq_accesses::total       541581                       # number of ReadExReq accesses(hits+misses)
system.DynamicCache.ReadExReq_miss_rate::.cpu.data            1                       # miss rate for ReadExReq accesses
system.DynamicCache.ReadExReq_miss_rate::total            1                       # miss rate for ReadExReq accesses
system.DynamicCache.ReadExReq_avg_miss_latency::.cpu.data 587759.720153                       # average ReadExReq miss latency
system.DynamicCache.ReadExReq_avg_miss_latency::total 587759.720153                       # average ReadExReq miss latency
system.DynamicCache.ReadExReq_mshr_misses::.cpu.data       541581                       # number of ReadExReq MSHR misses
system.DynamicCache.ReadExReq_mshr_misses::total       541581                       # number of ReadExReq MSHR misses
system.DynamicCache.ReadExReq_mshr_miss_latency::.cpu.data 247913967000                       # number of ReadExReq MSHR miss cycles
system.DynamicCache.ReadExReq_mshr_miss_latency::total 247913967000                       # number of ReadExReq MSHR miss cycles
system.DynamicCache.ReadExReq_mshr_miss_rate::.cpu.data            1                       # mshr miss rate for ReadExReq accesses
system.DynamicCache.ReadExReq_mshr_miss_rate::total            1                       # mshr miss rate for ReadExReq accesses
system.DynamicCache.ReadExReq_avg_mshr_miss_latency::.cpu.data 457759.720153                       # average ReadExReq mshr miss latency
system.DynamicCache.ReadExReq_avg_mshr_miss_latency::total 457759.720153                       # average ReadExReq mshr miss latency
system.DynamicCache.ReadSharedReq_misses::.cpu.inst          504                       # number of ReadSharedReq misses
system.DynamicCache.ReadSharedReq_misses::.cpu.data           91                       # number of ReadSharedReq misses
system.DynamicCache.ReadSharedReq_misses::total          595                       # number of ReadSharedReq misses
system.DynamicCache.ReadSharedReq_miss_latency::.cpu.inst    293773000                       # number of ReadSharedReq miss cycles
system.DynamicCache.ReadSharedReq_miss_latency::.cpu.data     53258000                       # number of ReadSharedReq miss cycles
system.DynamicCache.ReadSharedReq_miss_latency::total    347031000                       # number of ReadSharedReq miss cycles
system.DynamicCache.ReadSharedReq_accesses::.cpu.inst          504                       # number of ReadSharedReq accesses(hits+misses)
system.DynamicCache.ReadSharedReq_accesses::.cpu.data           91                       # number of ReadSharedReq accesses(hits+misses)
system.DynamicCache.ReadSharedReq_accesses::total          595                       # number of ReadSharedReq accesses(hits+misses)
system.DynamicCache.ReadSharedReq_miss_rate::.cpu.inst            1                       # miss rate for ReadSharedReq accesses
system.DynamicCache.ReadSharedReq_miss_rate::.cpu.data            1                       # miss rate for ReadSharedReq accesses
system.DynamicCache.ReadSharedReq_miss_rate::total            1                       # miss rate for ReadSharedReq accesses
system.DynamicCache.ReadSharedReq_avg_miss_latency::.cpu.inst 582882.936508                       # average ReadSharedReq miss latency
system.DynamicCache.ReadSharedReq_avg_miss_latency::.cpu.data 585252.747253                       # average ReadSharedReq miss latency
system.DynamicCache.ReadSharedReq_avg_miss_latency::total 583245.378151                       # average ReadSharedReq miss latency
system.DynamicCache.ReadSharedReq_mshr_misses::.cpu.inst          504                       # number of ReadSharedReq MSHR misses
system.DynamicCache.ReadSharedReq_mshr_misses::.cpu.data           91                       # number of ReadSharedReq MSHR misses
system.DynamicCache.ReadSharedReq_mshr_misses::total          595                       # number of ReadSharedReq MSHR misses
system.DynamicCache.ReadSharedReq_mshr_miss_latency::.cpu.inst    228253000                       # number of ReadSharedReq MSHR miss cycles
system.DynamicCache.ReadSharedReq_mshr_miss_latency::.cpu.data     41428000                       # number of ReadSharedReq MSHR miss cycles
system.DynamicCache.ReadSharedReq_mshr_miss_latency::total    269681000                       # number of ReadSharedReq MSHR miss cycles
system.DynamicCache.ReadSharedReq_mshr_miss_rate::.cpu.inst            1                       # mshr miss rate for ReadSharedReq accesses
system.DynamicCache.ReadSharedReq_mshr_miss_rate::.cpu.data            1                       # mshr miss rate for ReadSharedReq accesses
system.DynamicCache.ReadSharedReq_mshr_miss_rate::total            1                       # mshr miss rate for ReadSharedReq accesses
system.DynamicCache.ReadSharedReq_avg_mshr_miss_latency::.cpu.inst 452882.936508                       # average ReadSharedReq mshr miss latency
system.DynamicCache.ReadSharedReq_avg_mshr_miss_latency::.cpu.data 455252.747253                       # average ReadSharedReq mshr miss latency
system.DynamicCache.ReadSharedReq_avg_mshr_miss_latency::total 453245.378151                       # average ReadSharedReq mshr miss latency
system.DynamicCache.power_state.pwrStateResidencyTicks::UNDEFINED 422180464000                       # Cumulative time (in ticks) in various power states
system.DynamicCache.tags.tagsinuse       16131.519117                       # Cycle average of tags in use
system.DynamicCache.tags.total_refs           1075837                       # Total number of references to valid blocks.
system.DynamicCache.tags.sampled_refs         1067641                       # Sample count of references to valid blocks.
system.DynamicCache.tags.avg_refs            1.007677                       # Average number of references to valid blocks.
system.DynamicCache.tags.warmup_cycle          527000                       # Cycle when the warmup percentage was hit.
system.DynamicCache.tags.occ_blocks::.writebacks  7877.075668                       # Average occupied blocks per requestor
system.DynamicCache.tags.occ_blocks::.cpu.inst    11.641147                       # Average occupied blocks per requestor
system.DynamicCache.tags.occ_blocks::.cpu.data  8242.802301                       # Average occupied blocks per requestor
system.DynamicCache.tags.occ_percent::.writebacks     0.961557                       # Average percentage of cache occupancy
system.DynamicCache.tags.occ_percent::.cpu.inst     0.001421                       # Average percentage of cache occupancy
system.DynamicCache.tags.occ_percent::.cpu.data     1.006201                       # Average percentage of cache occupancy
system.DynamicCache.tags.occ_percent::total     1.969180                       # Average percentage of cache occupancy
system.DynamicCache.tags.occ_task_id_blocks::1024        16384                       # Occupied blocks per task id
system.DynamicCache.tags.age_task_id_blocks_1024::0           26                       # Occupied blocks per task id
system.DynamicCache.tags.age_task_id_blocks_1024::1          232                       # Occupied blocks per task id
system.DynamicCache.tags.age_task_id_blocks_1024::2         2311                       # Occupied blocks per task id
system.DynamicCache.tags.age_task_id_blocks_1024::3        13815                       # Occupied blocks per task id
system.DynamicCache.tags.occ_task_id_percent::1024            2                       # Percentage of cache occupancy per task id
system.DynamicCache.tags.tag_accesses         2143478                       # Number of tag accesses
system.DynamicCache.tags.data_accesses        2143478                       # Number of data accesses
system.DynamicCache.tags.power_state.pwrStateResidencyTicks::UNDEFINED 422180464000                       # Cumulative time (in ticks) in various power states
system.l2bar.trans_dist::ReadResp                 674                       # Transaction distribution
system.l2bar.trans_dist::WritebackDirty       2137259                       # Transaction distribution
system.l2bar.trans_dist::CleanEvict            527496                       # Transaction distribution
system.l2bar.trans_dist::ReadExReq             541583                       # Transaction distribution
system.l2bar.trans_dist::ReadExResp            541583                       # Transaction distribution
system.l2bar.trans_dist::ReadSharedReq            674                       # Transaction distribution
system.l2bar.pkt_count_system.dcache.mem_side::system.l2cache.cpu_side      1624537                       # Packet count per connected master and slave (bytes)
system.l2bar.pkt_count_system.icache.mem_side::system.l2cache.cpu_side         1399                       # Packet count per connected master and slave (bytes)
system.l2bar.pkt_count::total                 1625936                       # Packet count per connected master and slave (bytes)
system.l2bar.pkt_size_system.dcache.mem_side::system.l2cache.cpu_side     69298560                       # Cumulative packet size per connected master and slave (bytes)
system.l2bar.pkt_size_system.icache.mem_side::system.l2cache.cpu_side        36736                       # Cumulative packet size per connected master and slave (bytes)
system.l2bar.pkt_size::total                 69335296                       # Cumulative packet size per connected master and slave (bytes)
system.l2bar.snoops                           2123333                       # Total snoops (count)
system.l2bar.snoopTraffic                   102153728                       # Total snoop traffic (bytes)
system.l2bar.snoop_fanout::samples            2665590                       # Request fanout histogram
system.l2bar.snoop_fanout::mean              0.000373                       # Request fanout histogram
system.l2bar.snoop_fanout::stdev             0.019317                       # Request fanout histogram
system.l2bar.snoop_fanout::underflows               0      0.00%      0.00% # Request fanout histogram
system.l2bar.snoop_fanout::0                  2664595     99.96%     99.96% # Request fanout histogram
system.l2bar.snoop_fanout::1                      995      0.04%    100.00% # Request fanout histogram
system.l2bar.snoop_fanout::2                        0      0.00%    100.00% # Request fanout histogram
system.l2bar.snoop_fanout::overflows                0      0.00%    100.00% # Request fanout histogram
system.l2bar.snoop_fanout::min_value                0                       # Request fanout histogram
system.l2bar.snoop_fanout::max_value                1                       # Request fanout histogram
system.l2bar.snoop_fanout::total              2665590                       # Request fanout histogram
system.l2bar.reqLayer0.occupancy           2165893000                       # Layer occupancy (ticks)
system.l2bar.reqLayer0.utilization                0.5                       # Layer utilization (%)
system.l2bar.respLayer1.occupancy             1722000                       # Layer occupancy (ticks)
system.l2bar.respLayer1.utilization               0.0                       # Layer utilization (%)
system.l2bar.respLayer0.occupancy          1625049000                       # Layer occupancy (ticks)
system.l2bar.respLayer0.utilization               0.4                       # Layer utilization (%)
system.l2bar.power_state.pwrStateResidencyTicks::UNDEFINED 422180464000                       # Cumulative time (in ticks) in various power states
system.cpu.dtb.walker.power_state.pwrStateResidencyTicks::UNDEFINED 422180464000                       # Cumulative time (in ticks) in various power states
system.cpu.interrupts.clk_domain.clock          16000                       # Clock period in ticks
system.cpu.itb.walker.power_state.pwrStateResidencyTicks::UNDEFINED 422180464000                       # Cumulative time (in ticks) in various power states
system.cpu.power_state.numTransitions               1                       # Number of power state transitions
system.cpu.power_state.pwrStateResidencyTicks::ON 422180464000                       # Cumulative time (in ticks) in various power states

---------- End Simulation Statistics   ----------
