
---------- Begin Simulation Statistics ----------
final_tick                                13088106000                       # Number of ticks from beginning of simulation (restored from checkpoints and never reset)
host_inst_rate                                  50218                       # Simulator instruction rate (inst/s)
host_mem_usage                               34199612                       # Number of bytes of host memory used
host_op_rate                                    59795                       # Simulator op (including micro ops) rate (op/s)
host_seconds                                    19.91                       # Real time elapsed on the host
host_tick_rate                              657242693                       # Simulator tick rate (ticks/s)
sim_freq                                 1000000000000                       # Frequency of simulated ticks
sim_insts                                     1000014                       # Number of instructions simulated
sim_ops                                       1190737                       # Number of ops (including micro ops) simulated
sim_seconds                                  0.013088                       # Number of seconds simulated
sim_ticks                                 13088106000                       # Number of ticks simulated
system.cpu.Branches                             47725                       # Number of branches fetched
system.cpu.committedInsts                     1000014                       # Number of instructions committed
system.cpu.committedOps                       1190737                       # Number of ops (including micro ops) committed
system.cpu.dtb.rdAccesses                        4619                       # TLB accesses on read requests
system.cpu.dtb.rdMisses                            16                       # TLB misses on read requests
system.cpu.dtb.wrAccesses                      856967                       # TLB accesses on write requests
system.cpu.dtb.wrMisses                          3343                       # TLB misses on write requests
system.cpu.idle_fraction                            0                       # Percentage of idle cycles
system.cpu.itb.rdAccesses                           0                       # TLB accesses on read requests
system.cpu.itb.rdMisses                             0                       # TLB misses on read requests
system.cpu.itb.wrAccesses                     1563274                       # TLB accesses on write requests
system.cpu.itb.wrMisses                            47                       # TLB misses on write requests
system.cpu.not_idle_fraction                        1                       # Percentage of non-idle cycles
system.cpu.numCycles                         13088095                       # number of cpu cycles simulated
system.cpu.numWorkItemsCompleted                    0                       # number of work items this cpu completed
system.cpu.numWorkItemsStarted                      0                       # number of work items this cpu started
system.cpu.num_busy_cycles                   13088095                       # Number of busy cycles
system.cpu.num_cc_register_reads               237609                       # number of times the CC registers were read
system.cpu.num_cc_register_writes              182574                       # number of times the CC registers were written
system.cpu.num_conditional_control_insts        46584                       # number of instructions that are conditional controls
system.cpu.num_fp_alu_accesses                 810537                       # Number of float alu accesses
system.cpu.num_fp_insts                        810537                       # number of float instructions
system.cpu.num_fp_register_reads               811048                       # number of times the floating registers were read
system.cpu.num_fp_register_writes                 609                       # number of times the floating registers were written
system.cpu.num_func_calls                         793                       # number of times a function call or return occured
system.cpu.num_idle_cycles                          0                       # Number of idle cycles
system.cpu.num_int_alu_accesses               1191616                       # Number of integer alu accesses
system.cpu.num_int_insts                      1191616                       # number of integer instructions
system.cpu.num_int_register_reads             3022754                       # number of times the integer registers were read
system.cpu.num_int_register_writes             287112                       # number of times the integer registers were written
system.cpu.num_load_insts                        4604                       # Number of load instructions
system.cpu.num_mem_refs                        861570                       # number of memory refs
system.cpu.num_store_insts                     856966                       # Number of store instructions
system.cpu.num_vec_alu_accesses                     0                       # Number of vector alu accesses
system.cpu.num_vec_insts                            0                       # number of vector instructions
system.cpu.num_vec_register_reads                   0                       # number of times the vector registers were read
system.cpu.num_vec_register_writes                  0                       # number of times the vector registers were written
system.cpu.op_class::No_OpClass                   186      0.02%      0.02% # Class of executed instruction
system.cpu.op_class::IntAlu                    329999     27.68%     27.69% # Class of executed instruction
system.cpu.op_class::IntMult                       29      0.00%     27.69% # Class of executed instruction
system.cpu.op_class::IntDiv                        70      0.01%     27.70% # Class of executed instruction
system.cpu.op_class::FloatAdd                      19      0.00%     27.70% # Class of executed instruction
system.cpu.op_class::FloatCmp                       0      0.00%     27.70% # Class of executed instruction
system.cpu.op_class::FloatCvt                       0      0.00%     27.70% # Class of executed instruction
system.cpu.op_class::FloatMult                      0      0.00%     27.70% # Class of executed instruction
system.cpu.op_class::FloatMultAcc                   0      0.00%     27.70% # Class of executed instruction
system.cpu.op_class::FloatDiv                       0      0.00%     27.70% # Class of executed instruction
system.cpu.op_class::FloatMisc                      0      0.00%     27.70% # Class of executed instruction
system.cpu.op_class::FloatSqrt                      0      0.00%     27.70% # Class of executed instruction
system.cpu.op_class::SimdAdd                        0      0.00%     27.70% # Class of executed instruction
system.cpu.op_class::SimdAddAcc                     0      0.00%     27.70% # Class of executed instruction
system.cpu.op_class::SimdAlu                      152      0.01%     27.71% # Class of executed instruction
system.cpu.op_class::SimdCmp                        0      0.00%     27.71% # Class of executed instruction
system.cpu.op_class::SimdCvt                      158      0.01%     27.73% # Class of executed instruction
system.cpu.op_class::SimdMisc                     221      0.02%     27.75% # Class of executed instruction
system.cpu.op_class::SimdMult                       0      0.00%     27.75% # Class of executed instruction
system.cpu.op_class::SimdMultAcc                    0      0.00%     27.75% # Class of executed instruction
system.cpu.op_class::SimdShift                      0      0.00%     27.75% # Class of executed instruction
system.cpu.op_class::SimdShiftAcc                   0      0.00%     27.75% # Class of executed instruction
system.cpu.op_class::SimdDiv                        0      0.00%     27.75% # Class of executed instruction
system.cpu.op_class::SimdSqrt                       0      0.00%     27.75% # Class of executed instruction
system.cpu.op_class::SimdFloatAdd                   0      0.00%     27.75% # Class of executed instruction
system.cpu.op_class::SimdFloatAlu                   0      0.00%     27.75% # Class of executed instruction
system.cpu.op_class::SimdFloatCmp                   0      0.00%     27.75% # Class of executed instruction
system.cpu.op_class::SimdFloatCvt                   2      0.00%     27.75% # Class of executed instruction
system.cpu.op_class::SimdFloatDiv                   0      0.00%     27.75% # Class of executed instruction
system.cpu.op_class::SimdFloatMisc                  0      0.00%     27.75% # Class of executed instruction
system.cpu.op_class::SimdFloatMult                  0      0.00%     27.75% # Class of executed instruction
system.cpu.op_class::SimdFloatMultAcc               0      0.00%     27.75% # Class of executed instruction
system.cpu.op_class::SimdFloatSqrt                  0      0.00%     27.75% # Class of executed instruction
system.cpu.op_class::SimdReduceAdd                  0      0.00%     27.75% # Class of executed instruction
system.cpu.op_class::SimdReduceAlu                  0      0.00%     27.75% # Class of executed instruction
system.cpu.op_class::SimdReduceCmp                  0      0.00%     27.75% # Class of executed instruction
system.cpu.op_class::SimdFloatReduceAdd             0      0.00%     27.75% # Class of executed instruction
system.cpu.op_class::SimdFloatReduceCmp             0      0.00%     27.75% # Class of executed instruction
system.cpu.op_class::SimdAes                        0      0.00%     27.75% # Class of executed instruction
system.cpu.op_class::SimdAesMix                     0      0.00%     27.75% # Class of executed instruction
system.cpu.op_class::SimdSha1Hash                   0      0.00%     27.75% # Class of executed instruction
system.cpu.op_class::SimdSha1Hash2                  0      0.00%     27.75% # Class of executed instruction
system.cpu.op_class::SimdSha256Hash                 0      0.00%     27.75% # Class of executed instruction
system.cpu.op_class::SimdSha256Hash2                0      0.00%     27.75% # Class of executed instruction
system.cpu.op_class::SimdShaSigma2                  0      0.00%     27.75% # Class of executed instruction
system.cpu.op_class::SimdShaSigma3                  0      0.00%     27.75% # Class of executed instruction
system.cpu.op_class::SimdPredAlu                    0      0.00%     27.75% # Class of executed instruction
system.cpu.op_class::MemRead                     4502      0.38%     28.12% # Class of executed instruction
system.cpu.op_class::MemWrite                   47149      3.95%     32.08% # Class of executed instruction
system.cpu.op_class::FloatMemRead                 102      0.01%     32.09% # Class of executed instruction
system.cpu.op_class::FloatMemWrite             809817     67.91%    100.00% # Class of executed instruction
system.cpu.op_class::IprAccess                      0      0.00%    100.00% # Class of executed instruction
system.cpu.op_class::InstPrefetch                   0      0.00%    100.00% # Class of executed instruction
system.cpu.op_class::total                    1192406                       # Class of executed instruction
system.cpu.workload.numSyscalls                    90                       # Number of system calls
system.dynamic_cache.flushTicks                     0                       # Ticks taken to flush
system.dynamic_cache.numFlushes                     0                       # Number of Flushes Taken
system.cache_small.demand_hits::.cpu.inst           73                       # number of demand (read+write) hits
system.cache_small.demand_hits::.cpu.data           12                       # number of demand (read+write) hits
system.cache_small.demand_hits::total              85                       # number of demand (read+write) hits
system.cache_small.overall_hits::.cpu.inst           73                       # number of overall hits
system.cache_small.overall_hits::.cpu.data           12                       # number of overall hits
system.cache_small.overall_hits::total             85                       # number of overall hits
system.cache_small.demand_misses::.cpu.inst          504                       # number of demand (read+write) misses
system.cache_small.demand_misses::.cpu.data       106743                       # number of demand (read+write) misses
system.cache_small.demand_misses::total        107247                       # number of demand (read+write) misses
system.cache_small.overall_misses::.cpu.inst          504                       # number of overall misses
system.cache_small.overall_misses::.cpu.data       106743                       # number of overall misses
system.cache_small.overall_misses::total       107247                       # number of overall misses
system.cache_small.demand_miss_latency::.cpu.inst     29735000                       # number of demand (read+write) miss cycles
system.cache_small.demand_miss_latency::.cpu.data   6598626000                       # number of demand (read+write) miss cycles
system.cache_small.demand_miss_latency::total   6628361000                       # number of demand (read+write) miss cycles
system.cache_small.overall_miss_latency::.cpu.inst     29735000                       # number of overall miss cycles
system.cache_small.overall_miss_latency::.cpu.data   6598626000                       # number of overall miss cycles
system.cache_small.overall_miss_latency::total   6628361000                       # number of overall miss cycles
system.cache_small.demand_accesses::.cpu.inst          577                       # number of demand (read+write) accesses
system.cache_small.demand_accesses::.cpu.data       106755                       # number of demand (read+write) accesses
system.cache_small.demand_accesses::total       107332                       # number of demand (read+write) accesses
system.cache_small.overall_accesses::.cpu.inst          577                       # number of overall (read+write) accesses
system.cache_small.overall_accesses::.cpu.data       106755                       # number of overall (read+write) accesses
system.cache_small.overall_accesses::total       107332                       # number of overall (read+write) accesses
system.cache_small.demand_miss_rate::.cpu.inst     0.873484                       # miss rate for demand accesses
system.cache_small.demand_miss_rate::.cpu.data     0.999888                       # miss rate for demand accesses
system.cache_small.demand_miss_rate::total     0.999208                       # miss rate for demand accesses
system.cache_small.overall_miss_rate::.cpu.inst     0.873484                       # miss rate for overall accesses
system.cache_small.overall_miss_rate::.cpu.data     0.999888                       # miss rate for overall accesses
system.cache_small.overall_miss_rate::total     0.999208                       # miss rate for overall accesses
system.cache_small.demand_avg_miss_latency::.cpu.inst 58998.015873                       # average overall miss latency
system.cache_small.demand_avg_miss_latency::.cpu.data 61817.880329                       # average overall miss latency
system.cache_small.demand_avg_miss_latency::total 61804.628568                       # average overall miss latency
system.cache_small.overall_avg_miss_latency::.cpu.inst 58998.015873                       # average overall miss latency
system.cache_small.overall_avg_miss_latency::.cpu.data 61817.880329                       # average overall miss latency
system.cache_small.overall_avg_miss_latency::total 61804.628568                       # average overall miss latency
system.cache_small.blocked_cycles::no_mshrs            0                       # number of cycles access was blocked
system.cache_small.blocked_cycles::no_targets            0                       # number of cycles access was blocked
system.cache_small.blocked::no_mshrs                0                       # number of cycles access was blocked
system.cache_small.blocked::no_targets              0                       # number of cycles access was blocked
system.cache_small.avg_blocked_cycles::no_mshrs          nan                       # average number of cycles each access was blocked
system.cache_small.avg_blocked_cycles::no_targets          nan                       # average number of cycles each access was blocked
system.cache_small.writebacks::.writebacks        98487                       # number of writebacks
system.cache_small.writebacks::total            98487                       # number of writebacks
system.cache_small.demand_mshr_misses::.cpu.inst          504                       # number of demand (read+write) MSHR misses
system.cache_small.demand_mshr_misses::.cpu.data       106743                       # number of demand (read+write) MSHR misses
system.cache_small.demand_mshr_misses::total       107247                       # number of demand (read+write) MSHR misses
system.cache_small.overall_mshr_misses::.cpu.inst          504                       # number of overall MSHR misses
system.cache_small.overall_mshr_misses::.cpu.data       106743                       # number of overall MSHR misses
system.cache_small.overall_mshr_misses::total       107247                       # number of overall MSHR misses
system.cache_small.demand_mshr_miss_latency::.cpu.inst     28727000                       # number of demand (read+write) MSHR miss cycles
system.cache_small.demand_mshr_miss_latency::.cpu.data   6385140000                       # number of demand (read+write) MSHR miss cycles
system.cache_small.demand_mshr_miss_latency::total   6413867000                       # number of demand (read+write) MSHR miss cycles
system.cache_small.overall_mshr_miss_latency::.cpu.inst     28727000                       # number of overall MSHR miss cycles
system.cache_small.overall_mshr_miss_latency::.cpu.data   6385140000                       # number of overall MSHR miss cycles
system.cache_small.overall_mshr_miss_latency::total   6413867000                       # number of overall MSHR miss cycles
system.cache_small.demand_mshr_miss_rate::.cpu.inst     0.873484                       # mshr miss rate for demand accesses
system.cache_small.demand_mshr_miss_rate::.cpu.data     0.999888                       # mshr miss rate for demand accesses
system.cache_small.demand_mshr_miss_rate::total     0.999208                       # mshr miss rate for demand accesses
system.cache_small.overall_mshr_miss_rate::.cpu.inst     0.873484                       # mshr miss rate for overall accesses
system.cache_small.overall_mshr_miss_rate::.cpu.data     0.999888                       # mshr miss rate for overall accesses
system.cache_small.overall_mshr_miss_rate::total     0.999208                       # mshr miss rate for overall accesses
system.cache_small.demand_avg_mshr_miss_latency::.cpu.inst 56998.015873                       # average overall mshr miss latency
system.cache_small.demand_avg_mshr_miss_latency::.cpu.data 59817.880329                       # average overall mshr miss latency
system.cache_small.demand_avg_mshr_miss_latency::total 59804.628568                       # average overall mshr miss latency
system.cache_small.overall_avg_mshr_miss_latency::.cpu.inst 56998.015873                       # average overall mshr miss latency
system.cache_small.overall_avg_mshr_miss_latency::.cpu.data 59817.880329                       # average overall mshr miss latency
system.cache_small.overall_avg_mshr_miss_latency::total 59804.628568                       # average overall mshr miss latency
system.cache_small.replacements                 99055                       # number of replacements
system.cache_small.ReadReq_hits::.cpu.inst           73                       # number of ReadReq hits
system.cache_small.ReadReq_hits::.cpu.data           12                       # number of ReadReq hits
system.cache_small.ReadReq_hits::total             85                       # number of ReadReq hits
system.cache_small.ReadReq_misses::.cpu.inst          504                       # number of ReadReq misses
system.cache_small.ReadReq_misses::.cpu.data       106743                       # number of ReadReq misses
system.cache_small.ReadReq_misses::total       107247                       # number of ReadReq misses
system.cache_small.ReadReq_miss_latency::.cpu.inst     29735000                       # number of ReadReq miss cycles
system.cache_small.ReadReq_miss_latency::.cpu.data   6598626000                       # number of ReadReq miss cycles
system.cache_small.ReadReq_miss_latency::total   6628361000                       # number of ReadReq miss cycles
system.cache_small.ReadReq_accesses::.cpu.inst          577                       # number of ReadReq accesses(hits+misses)
system.cache_small.ReadReq_accesses::.cpu.data       106755                       # number of ReadReq accesses(hits+misses)
system.cache_small.ReadReq_accesses::total       107332                       # number of ReadReq accesses(hits+misses)
system.cache_small.ReadReq_miss_rate::.cpu.inst     0.873484                       # miss rate for ReadReq accesses
system.cache_small.ReadReq_miss_rate::.cpu.data     0.999888                       # miss rate for ReadReq accesses
system.cache_small.ReadReq_miss_rate::total     0.999208                       # miss rate for ReadReq accesses
system.cache_small.ReadReq_avg_miss_latency::.cpu.inst 58998.015873                       # average ReadReq miss latency
system.cache_small.ReadReq_avg_miss_latency::.cpu.data 61817.880329                       # average ReadReq miss latency
system.cache_small.ReadReq_avg_miss_latency::total 61804.628568                       # average ReadReq miss latency
system.cache_small.ReadReq_mshr_misses::.cpu.inst          504                       # number of ReadReq MSHR misses
system.cache_small.ReadReq_mshr_misses::.cpu.data       106743                       # number of ReadReq MSHR misses
system.cache_small.ReadReq_mshr_misses::total       107247                       # number of ReadReq MSHR misses
system.cache_small.ReadReq_mshr_miss_latency::.cpu.inst     28727000                       # number of ReadReq MSHR miss cycles
system.cache_small.ReadReq_mshr_miss_latency::.cpu.data   6385140000                       # number of ReadReq MSHR miss cycles
system.cache_small.ReadReq_mshr_miss_latency::total   6413867000                       # number of ReadReq MSHR miss cycles
system.cache_small.ReadReq_mshr_miss_rate::.cpu.inst     0.873484                       # mshr miss rate for ReadReq accesses
system.cache_small.ReadReq_mshr_miss_rate::.cpu.data     0.999888                       # mshr miss rate for ReadReq accesses
system.cache_small.ReadReq_mshr_miss_rate::total     0.999208                       # mshr miss rate for ReadReq accesses
system.cache_small.ReadReq_avg_mshr_miss_latency::.cpu.inst 56998.015873                       # average ReadReq mshr miss latency
system.cache_small.ReadReq_avg_mshr_miss_latency::.cpu.data 59817.880329                       # average ReadReq mshr miss latency
system.cache_small.ReadReq_avg_mshr_miss_latency::total 59804.628568                       # average ReadReq mshr miss latency
system.cache_small.WritebackDirty_hits::.writebacks       106183                       # number of WritebackDirty hits
system.cache_small.WritebackDirty_hits::total       106183                       # number of WritebackDirty hits
system.cache_small.WritebackDirty_accesses::.writebacks       106183                       # number of WritebackDirty accesses(hits+misses)
system.cache_small.WritebackDirty_accesses::total       106183                       # number of WritebackDirty accesses(hits+misses)
system.cache_small.power_state.pwrStateResidencyTicks::UNDEFINED  13088106000                       # Cumulative time (in ticks) in various power states
system.cache_small.tags.tagsinuse         7851.550581                       # Cycle average of tags in use
system.cache_small.tags.total_refs             197643                       # Total number of references to valid blocks.
system.cache_small.tags.sampled_refs            99055                       # Sample count of references to valid blocks.
system.cache_small.tags.avg_refs             1.995285                       # Average number of references to valid blocks.
system.cache_small.tags.warmup_cycle            76000                       # Cycle when the warmup percentage was hit.
system.cache_small.tags.occ_blocks::.cpu.inst    20.922333                       # Average occupied blocks per requestor
system.cache_small.tags.occ_blocks::.cpu.data  7830.628248                       # Average occupied blocks per requestor
system.cache_small.tags.occ_percent::.cpu.inst     0.002554                       # Average percentage of cache occupancy
system.cache_small.tags.occ_percent::.cpu.data     0.955887                       # Average percentage of cache occupancy
system.cache_small.tags.occ_percent::total     0.958441                       # Average percentage of cache occupancy
system.cache_small.tags.occ_task_id_blocks::1024         8192                       # Occupied blocks per task id
system.cache_small.tags.age_task_id_blocks_1024::0           82                       # Occupied blocks per task id
system.cache_small.tags.age_task_id_blocks_1024::1          740                       # Occupied blocks per task id
system.cache_small.tags.age_task_id_blocks_1024::2         7370                       # Occupied blocks per task id
system.cache_small.tags.occ_task_id_percent::1024            1                       # Percentage of cache occupancy per task id
system.cache_small.tags.tag_accesses           320762                       # Number of tag accesses
system.cache_small.tags.data_accesses          320762                       # Number of data accesses
system.cache_small.tags.power_state.pwrStateResidencyTicks::UNDEFINED  13088106000                       # Cumulative time (in ticks) in various power states
system.icache.demand_hits::.cpu.inst          1562635                       # number of demand (read+write) hits
system.icache.demand_hits::total              1562635                       # number of demand (read+write) hits
system.icache.overall_hits::.cpu.inst         1562635                       # number of overall hits
system.icache.overall_hits::total             1562635                       # number of overall hits
system.icache.demand_misses::.cpu.inst            639                       # number of demand (read+write) misses
system.icache.demand_misses::total                639                       # number of demand (read+write) misses
system.icache.overall_misses::.cpu.inst           639                       # number of overall misses
system.icache.overall_misses::total               639                       # number of overall misses
system.icache.demand_miss_latency::.cpu.inst     40639000                       # number of demand (read+write) miss cycles
system.icache.demand_miss_latency::total     40639000                       # number of demand (read+write) miss cycles
system.icache.overall_miss_latency::.cpu.inst     40639000                       # number of overall miss cycles
system.icache.overall_miss_latency::total     40639000                       # number of overall miss cycles
system.icache.demand_accesses::.cpu.inst      1563274                       # number of demand (read+write) accesses
system.icache.demand_accesses::total          1563274                       # number of demand (read+write) accesses
system.icache.overall_accesses::.cpu.inst      1563274                       # number of overall (read+write) accesses
system.icache.overall_accesses::total         1563274                       # number of overall (read+write) accesses
system.icache.demand_miss_rate::.cpu.inst     0.000409                       # miss rate for demand accesses
system.icache.demand_miss_rate::total        0.000409                       # miss rate for demand accesses
system.icache.overall_miss_rate::.cpu.inst     0.000409                       # miss rate for overall accesses
system.icache.overall_miss_rate::total       0.000409                       # miss rate for overall accesses
system.icache.demand_avg_miss_latency::.cpu.inst 63597.809077                       # average overall miss latency
system.icache.demand_avg_miss_latency::total 63597.809077                       # average overall miss latency
system.icache.overall_avg_miss_latency::.cpu.inst 63597.809077                       # average overall miss latency
system.icache.overall_avg_miss_latency::total 63597.809077                       # average overall miss latency
system.icache.blocked_cycles::no_mshrs              0                       # number of cycles access was blocked
system.icache.blocked_cycles::no_targets            0                       # number of cycles access was blocked
system.icache.blocked::no_mshrs                     0                       # number of cycles access was blocked
system.icache.blocked::no_targets                   0                       # number of cycles access was blocked
system.icache.avg_blocked_cycles::no_mshrs          nan                       # average number of cycles each access was blocked
system.icache.avg_blocked_cycles::no_targets          nan                       # average number of cycles each access was blocked
system.icache.demand_mshr_misses::.cpu.inst          639                       # number of demand (read+write) MSHR misses
system.icache.demand_mshr_misses::total           639                       # number of demand (read+write) MSHR misses
system.icache.overall_mshr_misses::.cpu.inst          639                       # number of overall MSHR misses
system.icache.overall_mshr_misses::total          639                       # number of overall MSHR misses
system.icache.demand_mshr_miss_latency::.cpu.inst     39361000                       # number of demand (read+write) MSHR miss cycles
system.icache.demand_mshr_miss_latency::total     39361000                       # number of demand (read+write) MSHR miss cycles
system.icache.overall_mshr_miss_latency::.cpu.inst     39361000                       # number of overall MSHR miss cycles
system.icache.overall_mshr_miss_latency::total     39361000                       # number of overall MSHR miss cycles
system.icache.demand_mshr_miss_rate::.cpu.inst     0.000409                       # mshr miss rate for demand accesses
system.icache.demand_mshr_miss_rate::total     0.000409                       # mshr miss rate for demand accesses
system.icache.overall_mshr_miss_rate::.cpu.inst     0.000409                       # mshr miss rate for overall accesses
system.icache.overall_mshr_miss_rate::total     0.000409                       # mshr miss rate for overall accesses
system.icache.demand_avg_mshr_miss_latency::.cpu.inst 61597.809077                       # average overall mshr miss latency
system.icache.demand_avg_mshr_miss_latency::total 61597.809077                       # average overall mshr miss latency
system.icache.overall_avg_mshr_miss_latency::.cpu.inst 61597.809077                       # average overall mshr miss latency
system.icache.overall_avg_mshr_miss_latency::total 61597.809077                       # average overall mshr miss latency
system.icache.replacements                        417                       # number of replacements
system.icache.ReadReq_hits::.cpu.inst         1562635                       # number of ReadReq hits
system.icache.ReadReq_hits::total             1562635                       # number of ReadReq hits
system.icache.ReadReq_misses::.cpu.inst           639                       # number of ReadReq misses
system.icache.ReadReq_misses::total               639                       # number of ReadReq misses
system.icache.ReadReq_miss_latency::.cpu.inst     40639000                       # number of ReadReq miss cycles
system.icache.ReadReq_miss_latency::total     40639000                       # number of ReadReq miss cycles
system.icache.ReadReq_accesses::.cpu.inst      1563274                       # number of ReadReq accesses(hits+misses)
system.icache.ReadReq_accesses::total         1563274                       # number of ReadReq accesses(hits+misses)
system.icache.ReadReq_miss_rate::.cpu.inst     0.000409                       # miss rate for ReadReq accesses
system.icache.ReadReq_miss_rate::total       0.000409                       # miss rate for ReadReq accesses
system.icache.ReadReq_avg_miss_latency::.cpu.inst 63597.809077                       # average ReadReq miss latency
system.icache.ReadReq_avg_miss_latency::total 63597.809077                       # average ReadReq miss latency
system.icache.ReadReq_mshr_misses::.cpu.inst          639                       # number of ReadReq MSHR misses
system.icache.ReadReq_mshr_misses::total          639                       # number of ReadReq MSHR misses
system.icache.ReadReq_mshr_miss_latency::.cpu.inst     39361000                       # number of ReadReq MSHR miss cycles
system.icache.ReadReq_mshr_miss_latency::total     39361000                       # number of ReadReq MSHR miss cycles
system.icache.ReadReq_mshr_miss_rate::.cpu.inst     0.000409                       # mshr miss rate for ReadReq accesses
system.icache.ReadReq_mshr_miss_rate::total     0.000409                       # mshr miss rate for ReadReq accesses
system.icache.ReadReq_avg_mshr_miss_latency::.cpu.inst 61597.809077                       # average ReadReq mshr miss latency
system.icache.ReadReq_avg_mshr_miss_latency::total 61597.809077                       # average ReadReq mshr miss latency
system.icache.power_state.pwrStateResidencyTicks::UNDEFINED  13088106000                       # Cumulative time (in ticks) in various power states
system.icache.tags.tagsinuse               221.408978                       # Cycle average of tags in use
system.icache.tags.total_refs                   14346                       # Total number of references to valid blocks.
system.icache.tags.sampled_refs                   417                       # Sample count of references to valid blocks.
system.icache.tags.avg_refs                 34.402878                       # Average number of references to valid blocks.
system.icache.tags.warmup_cycle                 82000                       # Cycle when the warmup percentage was hit.
system.icache.tags.occ_blocks::.cpu.inst   221.408978                       # Average occupied blocks per requestor
system.icache.tags.occ_percent::.cpu.inst     0.864879                       # Average percentage of cache occupancy
system.icache.tags.occ_percent::total        0.864879                       # Average percentage of cache occupancy
system.icache.tags.occ_task_id_blocks::1024          222                       # Occupied blocks per task id
system.icache.tags.age_task_id_blocks_1024::4          222                       # Occupied blocks per task id
system.icache.tags.occ_task_id_percent::1024     0.867188                       # Percentage of cache occupancy per task id
system.icache.tags.tag_accesses               1563913                       # Number of tag accesses
system.icache.tags.data_accesses              1563913                       # Number of data accesses
system.icache.tags.power_state.pwrStateResidencyTicks::UNDEFINED  13088106000                       # Cumulative time (in ticks) in various power states
system.membus.trans_dist::ReadReq              107247                       # Transaction distribution
system.membus.trans_dist::ReadResp             107247                       # Transaction distribution
system.membus.trans_dist::WritebackDirty        98487                       # Transaction distribution
system.membus.pkt_count_system.cache_small.mem_side::system.mem_ctrl.port       312981                       # Packet count per connected master and slave (bytes)
system.membus.pkt_count_system.cache_small.mem_side::total       312981                       # Packet count per connected master and slave (bytes)
system.membus.pkt_count::total                 312981                       # Packet count per connected master and slave (bytes)
system.membus.pkt_size_system.cache_small.mem_side::system.mem_ctrl.port     13166976                       # Cumulative packet size per connected master and slave (bytes)
system.membus.pkt_size_system.cache_small.mem_side::total     13166976                       # Cumulative packet size per connected master and slave (bytes)
system.membus.pkt_size::total                13166976                       # Cumulative packet size per connected master and slave (bytes)
system.membus.reqLayer2.occupancy           599682000                       # Layer occupancy (ticks)
system.membus.reqLayer2.utilization               4.6                       # Layer utilization (%)
system.membus.respLayer1.occupancy          564471750                       # Layer occupancy (ticks)
system.membus.respLayer1.utilization              4.3                       # Layer utilization (%)
system.membus.power_state.pwrStateResidencyTicks::UNDEFINED  13088106000                       # Cumulative time (in ticks) in various power states
system.mem_ctrl.bytes_read::.cpu.inst           32256                       # Number of bytes read from this memory
system.mem_ctrl.bytes_read::.cpu.data         6831552                       # Number of bytes read from this memory
system.mem_ctrl.bytes_read::total             6863808                       # Number of bytes read from this memory
system.mem_ctrl.bytes_inst_read::.cpu.inst        32256                       # Number of instructions bytes read from this memory
system.mem_ctrl.bytes_inst_read::total          32256                       # Number of instructions bytes read from this memory
system.mem_ctrl.bytes_written::.writebacks      6303168                       # Number of bytes written to this memory
system.mem_ctrl.bytes_written::total          6303168                       # Number of bytes written to this memory
system.mem_ctrl.num_reads::.cpu.inst              504                       # Number of read requests responded to by this memory
system.mem_ctrl.num_reads::.cpu.data           106743                       # Number of read requests responded to by this memory
system.mem_ctrl.num_reads::total               107247                       # Number of read requests responded to by this memory
system.mem_ctrl.num_writes::.writebacks         98487                       # Number of write requests responded to by this memory
system.mem_ctrl.num_writes::total               98487                       # Number of write requests responded to by this memory
system.mem_ctrl.bw_read::.cpu.inst            2464528                       # Total read bandwidth from this memory (bytes/s)
system.mem_ctrl.bw_read::.cpu.data          521966433                       # Total read bandwidth from this memory (bytes/s)
system.mem_ctrl.bw_read::total              524430960                       # Total read bandwidth from this memory (bytes/s)
system.mem_ctrl.bw_inst_read::.cpu.inst       2464528                       # Instruction read bandwidth from this memory (bytes/s)
system.mem_ctrl.bw_inst_read::total           2464528                       # Instruction read bandwidth from this memory (bytes/s)
system.mem_ctrl.bw_write::.writebacks       481595122                       # Write bandwidth from this memory (bytes/s)
system.mem_ctrl.bw_write::total             481595122                       # Write bandwidth from this memory (bytes/s)
system.mem_ctrl.bw_total::.writebacks       481595122                       # Total bandwidth to/from this memory (bytes/s)
system.mem_ctrl.bw_total::.cpu.inst           2464528                       # Total bandwidth to/from this memory (bytes/s)
system.mem_ctrl.bw_total::.cpu.data         521966433                       # Total bandwidth to/from this memory (bytes/s)
system.mem_ctrl.bw_total::total            1006026082                       # Total bandwidth to/from this memory (bytes/s)
system.mem_ctrl.avgPriority_.writebacks::samples     98487.00                       # Average QoS priority value for accepted requests
system.mem_ctrl.avgPriority_.cpu.inst::samples       504.00                       # Average QoS priority value for accepted requests
system.mem_ctrl.avgPriority_.cpu.data::samples    106743.00                       # Average QoS priority value for accepted requests
system.mem_ctrl.priorityMinLatency       0.000000018750                       # per QoS priority minimum request to response latency (s)
system.mem_ctrl.priorityMaxLatency       0.000055902500                       # per QoS priority maximum request to response latency (s)
system.mem_ctrl.numReadWriteTurnArounds          5898                       # Number of turnarounds from READ to WRITE
system.mem_ctrl.numWriteReadTurnArounds          5898                       # Number of turnarounds from WRITE to READ
system.mem_ctrl.numStayReadState               310637                       # Number of times bus staying in READ state
system.mem_ctrl.numStayWriteState               92726                       # Number of times bus staying in WRITE state
system.mem_ctrl.readReqs                       107247                       # Number of read requests accepted
system.mem_ctrl.writeReqs                       98487                       # Number of write requests accepted
system.mem_ctrl.readBursts                     107247                       # Number of DRAM read bursts, including those serviced by the write queue
system.mem_ctrl.writeBursts                     98487                       # Number of DRAM write bursts, including those merged in the write queue
system.mem_ctrl.servicedByWrQ                       0                       # Number of DRAM read bursts serviced by the write queue
system.mem_ctrl.mergedWrBursts                      0                       # Number of DRAM write bursts merged with an existing one
system.mem_ctrl.neitherReadNorWriteReqs             0                       # Number of requests that are neither read nor write
system.mem_ctrl.perBankRdBursts::0               6731                       # Per bank write bursts
system.mem_ctrl.perBankRdBursts::1               6684                       # Per bank write bursts
system.mem_ctrl.perBankRdBursts::2               6691                       # Per bank write bursts
system.mem_ctrl.perBankRdBursts::3               6702                       # Per bank write bursts
system.mem_ctrl.perBankRdBursts::4               6694                       # Per bank write bursts
system.mem_ctrl.perBankRdBursts::5               6694                       # Per bank write bursts
system.mem_ctrl.perBankRdBursts::6               6683                       # Per bank write bursts
system.mem_ctrl.perBankRdBursts::7               6660                       # Per bank write bursts
system.mem_ctrl.perBankRdBursts::8               6670                       # Per bank write bursts
system.mem_ctrl.perBankRdBursts::9               6736                       # Per bank write bursts
system.mem_ctrl.perBankRdBursts::10              6704                       # Per bank write bursts
system.mem_ctrl.perBankRdBursts::11              6699                       # Per bank write bursts
system.mem_ctrl.perBankRdBursts::12              6695                       # Per bank write bursts
system.mem_ctrl.perBankRdBursts::13              6742                       # Per bank write bursts
system.mem_ctrl.perBankRdBursts::14              6737                       # Per bank write bursts
system.mem_ctrl.perBankRdBursts::15              6725                       # Per bank write bursts
system.mem_ctrl.perBankWrBursts::0               6144                       # Per bank write bursts
system.mem_ctrl.perBankWrBursts::1               6144                       # Per bank write bursts
system.mem_ctrl.perBankWrBursts::2               6144                       # Per bank write bursts
system.mem_ctrl.perBankWrBursts::3               6144                       # Per bank write bursts
system.mem_ctrl.perBankWrBursts::4               6144                       # Per bank write bursts
system.mem_ctrl.perBankWrBursts::5               6144                       # Per bank write bursts
system.mem_ctrl.perBankWrBursts::6               6144                       # Per bank write bursts
system.mem_ctrl.perBankWrBursts::7               6144                       # Per bank write bursts
system.mem_ctrl.perBankWrBursts::8               6146                       # Per bank write bursts
system.mem_ctrl.perBankWrBursts::9               6200                       # Per bank write bursts
system.mem_ctrl.perBankWrBursts::10              6160                       # Per bank write bursts
system.mem_ctrl.perBankWrBursts::11              6174                       # Per bank write bursts
system.mem_ctrl.perBankWrBursts::12              6156                       # Per bank write bursts
system.mem_ctrl.perBankWrBursts::13              6173                       # Per bank write bursts
system.mem_ctrl.perBankWrBursts::14              6151                       # Per bank write bursts
system.mem_ctrl.perBankWrBursts::15              6144                       # Per bank write bursts
system.mem_ctrl.avgRdQLen                        1.00                       # Average read queue length when enqueuing
system.mem_ctrl.avgWrQLen                       23.60                       # Average write queue length when enqueuing
system.mem_ctrl.totQLat                    1050092000                       # Total ticks spent queuing
system.mem_ctrl.totBusLat                   536235000                       # Total ticks spent in databus transfers
system.mem_ctrl.totMemAccLat               3060973250                       # Total ticks spent from burst creation until serviced by the DRAM
system.mem_ctrl.avgQLat                       9791.34                       # Average queueing delay per DRAM burst
system.mem_ctrl.avgBusLat                     5000.00                       # Average bus latency per DRAM burst
system.mem_ctrl.avgMemAccLat                 28541.34                       # Average memory access latency per DRAM burst
system.mem_ctrl.numRdRetry                          0                       # Number of times read queue was full causing retry
system.mem_ctrl.numWrRetry                          0                       # Number of times write queue was full causing retry
system.mem_ctrl.readRowHits                     96924                       # Number of row buffer hits during reads
system.mem_ctrl.writeRowHits                    90067                       # Number of row buffer hits during writes
system.mem_ctrl.readRowHitRate                  90.37                       # Row buffer hit rate for reads
system.mem_ctrl.writeRowHitRate                 91.45                       # Row buffer hit rate for writes
system.mem_ctrl.readPktSize::0                      0                       # Read request sizes (log2)
system.mem_ctrl.readPktSize::1                      0                       # Read request sizes (log2)
system.mem_ctrl.readPktSize::2                      0                       # Read request sizes (log2)
system.mem_ctrl.readPktSize::3                      0                       # Read request sizes (log2)
system.mem_ctrl.readPktSize::4                      0                       # Read request sizes (log2)
system.mem_ctrl.readPktSize::5                      0                       # Read request sizes (log2)
system.mem_ctrl.readPktSize::6                 107247                       # Read request sizes (log2)
system.mem_ctrl.writePktSize::0                     0                       # Write request sizes (log2)
system.mem_ctrl.writePktSize::1                     0                       # Write request sizes (log2)
system.mem_ctrl.writePktSize::2                     0                       # Write request sizes (log2)
system.mem_ctrl.writePktSize::3                     0                       # Write request sizes (log2)
system.mem_ctrl.writePktSize::4                     0                       # Write request sizes (log2)
system.mem_ctrl.writePktSize::5                     0                       # Write request sizes (log2)
system.mem_ctrl.writePktSize::6                 98487                       # Write request sizes (log2)
system.mem_ctrl.rdQLenPdf::0                   107247                       # What read queue length does an incoming req see
system.mem_ctrl.rdQLenPdf::1                        0                       # What read queue length does an incoming req see
system.mem_ctrl.rdQLenPdf::2                        0                       # What read queue length does an incoming req see
system.mem_ctrl.rdQLenPdf::3                        0                       # What read queue length does an incoming req see
system.mem_ctrl.rdQLenPdf::4                        0                       # What read queue length does an incoming req see
system.mem_ctrl.rdQLenPdf::5                        0                       # What read queue length does an incoming req see
system.mem_ctrl.rdQLenPdf::6                        0                       # What read queue length does an incoming req see
system.mem_ctrl.rdQLenPdf::7                        0                       # What read queue length does an incoming req see
system.mem_ctrl.rdQLenPdf::8                        0                       # What read queue length does an incoming req see
system.mem_ctrl.rdQLenPdf::9                        0                       # What read queue length does an incoming req see
system.mem_ctrl.rdQLenPdf::10                       0                       # What read queue length does an incoming req see
system.mem_ctrl.rdQLenPdf::11                       0                       # What read queue length does an incoming req see
system.mem_ctrl.rdQLenPdf::12                       0                       # What read queue length does an incoming req see
system.mem_ctrl.rdQLenPdf::13                       0                       # What read queue length does an incoming req see
system.mem_ctrl.rdQLenPdf::14                       0                       # What read queue length does an incoming req see
system.mem_ctrl.rdQLenPdf::15                       0                       # What read queue length does an incoming req see
system.mem_ctrl.rdQLenPdf::16                       0                       # What read queue length does an incoming req see
system.mem_ctrl.rdQLenPdf::17                       0                       # What read queue length does an incoming req see
system.mem_ctrl.rdQLenPdf::18                       0                       # What read queue length does an incoming req see
system.mem_ctrl.rdQLenPdf::19                       0                       # What read queue length does an incoming req see
system.mem_ctrl.rdQLenPdf::20                       0                       # What read queue length does an incoming req see
system.mem_ctrl.rdQLenPdf::21                       0                       # What read queue length does an incoming req see
system.mem_ctrl.rdQLenPdf::22                       0                       # What read queue length does an incoming req see
system.mem_ctrl.rdQLenPdf::23                       0                       # What read queue length does an incoming req see
system.mem_ctrl.rdQLenPdf::24                       0                       # What read queue length does an incoming req see
system.mem_ctrl.rdQLenPdf::25                       0                       # What read queue length does an incoming req see
system.mem_ctrl.rdQLenPdf::26                       0                       # What read queue length does an incoming req see
system.mem_ctrl.rdQLenPdf::27                       0                       # What read queue length does an incoming req see
system.mem_ctrl.rdQLenPdf::28                       0                       # What read queue length does an incoming req see
system.mem_ctrl.rdQLenPdf::29                       0                       # What read queue length does an incoming req see
system.mem_ctrl.rdQLenPdf::30                       0                       # What read queue length does an incoming req see
system.mem_ctrl.rdQLenPdf::31                       0                       # What read queue length does an incoming req see
system.mem_ctrl.wrQLenPdf::0                        1                       # What write queue length does an incoming req see
system.mem_ctrl.wrQLenPdf::1                        1                       # What write queue length does an incoming req see
system.mem_ctrl.wrQLenPdf::2                        1                       # What write queue length does an incoming req see
system.mem_ctrl.wrQLenPdf::3                        1                       # What write queue length does an incoming req see
system.mem_ctrl.wrQLenPdf::4                        1                       # What write queue length does an incoming req see
system.mem_ctrl.wrQLenPdf::5                        1                       # What write queue length does an incoming req see
system.mem_ctrl.wrQLenPdf::6                        1                       # What write queue length does an incoming req see
system.mem_ctrl.wrQLenPdf::7                        1                       # What write queue length does an incoming req see
system.mem_ctrl.wrQLenPdf::8                        1                       # What write queue length does an incoming req see
system.mem_ctrl.wrQLenPdf::9                        1                       # What write queue length does an incoming req see
system.mem_ctrl.wrQLenPdf::10                       1                       # What write queue length does an incoming req see
system.mem_ctrl.wrQLenPdf::11                       1                       # What write queue length does an incoming req see
system.mem_ctrl.wrQLenPdf::12                       1                       # What write queue length does an incoming req see
system.mem_ctrl.wrQLenPdf::13                       1                       # What write queue length does an incoming req see
system.mem_ctrl.wrQLenPdf::14                       1                       # What write queue length does an incoming req see
system.mem_ctrl.wrQLenPdf::15                    1968                       # What write queue length does an incoming req see
system.mem_ctrl.wrQLenPdf::16                    2088                       # What write queue length does an incoming req see
system.mem_ctrl.wrQLenPdf::17                    5888                       # What write queue length does an incoming req see
system.mem_ctrl.wrQLenPdf::18                    5900                       # What write queue length does an incoming req see
system.mem_ctrl.wrQLenPdf::19                    5910                       # What write queue length does an incoming req see
system.mem_ctrl.wrQLenPdf::20                    5899                       # What write queue length does an incoming req see
system.mem_ctrl.wrQLenPdf::21                    5899                       # What write queue length does an incoming req see
system.mem_ctrl.wrQLenPdf::22                    5899                       # What write queue length does an incoming req see
system.mem_ctrl.wrQLenPdf::23                    5899                       # What write queue length does an incoming req see
system.mem_ctrl.wrQLenPdf::24                    5899                       # What write queue length does an incoming req see
system.mem_ctrl.wrQLenPdf::25                    5900                       # What write queue length does an incoming req see
system.mem_ctrl.wrQLenPdf::26                    5899                       # What write queue length does an incoming req see
system.mem_ctrl.wrQLenPdf::27                    5931                       # What write queue length does an incoming req see
system.mem_ctrl.wrQLenPdf::28                    5899                       # What write queue length does an incoming req see
system.mem_ctrl.wrQLenPdf::29                    5899                       # What write queue length does an incoming req see
system.mem_ctrl.wrQLenPdf::30                    5899                       # What write queue length does an incoming req see
system.mem_ctrl.wrQLenPdf::31                    5898                       # What write queue length does an incoming req see
system.mem_ctrl.wrQLenPdf::32                    5898                       # What write queue length does an incoming req see
system.mem_ctrl.wrQLenPdf::33                       0                       # What write queue length does an incoming req see
system.mem_ctrl.wrQLenPdf::34                       0                       # What write queue length does an incoming req see
system.mem_ctrl.wrQLenPdf::35                       0                       # What write queue length does an incoming req see
system.mem_ctrl.wrQLenPdf::36                       0                       # What write queue length does an incoming req see
system.mem_ctrl.wrQLenPdf::37                       0                       # What write queue length does an incoming req see
system.mem_ctrl.wrQLenPdf::38                       0                       # What write queue length does an incoming req see
system.mem_ctrl.wrQLenPdf::39                       0                       # What write queue length does an incoming req see
system.mem_ctrl.wrQLenPdf::40                       0                       # What write queue length does an incoming req see
system.mem_ctrl.wrQLenPdf::41                       0                       # What write queue length does an incoming req see
system.mem_ctrl.wrQLenPdf::42                       0                       # What write queue length does an incoming req see
system.mem_ctrl.wrQLenPdf::43                       0                       # What write queue length does an incoming req see
system.mem_ctrl.wrQLenPdf::44                       0                       # What write queue length does an incoming req see
system.mem_ctrl.wrQLenPdf::45                       0                       # What write queue length does an incoming req see
system.mem_ctrl.wrQLenPdf::46                       0                       # What write queue length does an incoming req see
system.mem_ctrl.wrQLenPdf::47                       0                       # What write queue length does an incoming req see
system.mem_ctrl.wrQLenPdf::48                       0                       # What write queue length does an incoming req see
system.mem_ctrl.wrQLenPdf::49                       0                       # What write queue length does an incoming req see
system.mem_ctrl.wrQLenPdf::50                       0                       # What write queue length does an incoming req see
system.mem_ctrl.wrQLenPdf::51                       0                       # What write queue length does an incoming req see
system.mem_ctrl.wrQLenPdf::52                       0                       # What write queue length does an incoming req see
system.mem_ctrl.wrQLenPdf::53                       0                       # What write queue length does an incoming req see
system.mem_ctrl.wrQLenPdf::54                       0                       # What write queue length does an incoming req see
system.mem_ctrl.wrQLenPdf::55                       0                       # What write queue length does an incoming req see
system.mem_ctrl.wrQLenPdf::56                       0                       # What write queue length does an incoming req see
system.mem_ctrl.wrQLenPdf::57                       0                       # What write queue length does an incoming req see
system.mem_ctrl.wrQLenPdf::58                       0                       # What write queue length does an incoming req see
system.mem_ctrl.wrQLenPdf::59                       0                       # What write queue length does an incoming req see
system.mem_ctrl.wrQLenPdf::60                       0                       # What write queue length does an incoming req see
system.mem_ctrl.wrQLenPdf::61                       0                       # What write queue length does an incoming req see
system.mem_ctrl.wrQLenPdf::62                       0                       # What write queue length does an incoming req see
system.mem_ctrl.wrQLenPdf::63                       0                       # What write queue length does an incoming req see
system.mem_ctrl.bytesPerActivate::samples        18711                       # Bytes accessed per row activation
system.mem_ctrl.bytesPerActivate::mean     703.548501                       # Bytes accessed per row activation
system.mem_ctrl.bytesPerActivate::gmean    522.940150                       # Bytes accessed per row activation
system.mem_ctrl.bytesPerActivate::stdev    387.572498                       # Bytes accessed per row activation
system.mem_ctrl.bytesPerActivate::0-127           798      4.26%      4.26% # Bytes accessed per row activation
system.mem_ctrl.bytesPerActivate::128-255         3822     20.43%     24.69% # Bytes accessed per row activation
system.mem_ctrl.bytesPerActivate::256-383          815      4.36%     29.05% # Bytes accessed per row activation
system.mem_ctrl.bytesPerActivate::384-511          608      3.25%     32.30% # Bytes accessed per row activation
system.mem_ctrl.bytesPerActivate::512-639          932      4.98%     37.28% # Bytes accessed per row activation
system.mem_ctrl.bytesPerActivate::640-767          617      3.30%     40.58% # Bytes accessed per row activation
system.mem_ctrl.bytesPerActivate::768-895          649      3.47%     44.04% # Bytes accessed per row activation
system.mem_ctrl.bytesPerActivate::896-1023          778      4.16%     48.20% # Bytes accessed per row activation
system.mem_ctrl.bytesPerActivate::1024-1151         9692     51.80%    100.00% # Bytes accessed per row activation
system.mem_ctrl.bytesPerActivate::total         18711                       # Bytes accessed per row activation
system.mem_ctrl.rdPerTurnAround::samples         5898                       # Reads before turning the bus around for writes
system.mem_ctrl.rdPerTurnAround::mean       18.181248                       # Reads before turning the bus around for writes
system.mem_ctrl.rdPerTurnAround::gmean      16.713701                       # Reads before turning the bus around for writes
system.mem_ctrl.rdPerTurnAround::stdev     107.339689                       # Reads before turning the bus around for writes
system.mem_ctrl.rdPerTurnAround::0-511           5897     99.98%     99.98% # Reads before turning the bus around for writes
system.mem_ctrl.rdPerTurnAround::8192-8703            1      0.02%    100.00% # Reads before turning the bus around for writes
system.mem_ctrl.rdPerTurnAround::total           5898                       # Reads before turning the bus around for writes
system.mem_ctrl.wrPerTurnAround::samples         5898                       # Writes before turning the bus around for reads
system.mem_ctrl.wrPerTurnAround::mean       16.693116                       # Writes before turning the bus around for reads
system.mem_ctrl.wrPerTurnAround::gmean      16.666919                       # Writes before turning the bus around for reads
system.mem_ctrl.wrPerTurnAround::stdev       0.946468                       # Writes before turning the bus around for reads
system.mem_ctrl.wrPerTurnAround::16              3811     64.62%     64.62% # Writes before turning the bus around for reads
system.mem_ctrl.wrPerTurnAround::17                99      1.68%     66.29% # Writes before turning the bus around for reads
system.mem_ctrl.wrPerTurnAround::18              1975     33.49%     99.78% # Writes before turning the bus around for reads
system.mem_ctrl.wrPerTurnAround::19                13      0.22%    100.00% # Writes before turning the bus around for reads
system.mem_ctrl.wrPerTurnAround::total           5898                       # Writes before turning the bus around for reads
system.mem_ctrl.bytesReadDRAM                 6863808                       # Total number of bytes read from DRAM
system.mem_ctrl.bytesReadWrQ                        0                       # Total number of bytes read from write queue
system.mem_ctrl.bytesWritten                  6301184                       # Total number of bytes written to DRAM
system.mem_ctrl.bytesReadSys                  6863808                       # Total read bytes from the system interface side
system.mem_ctrl.bytesWrittenSys               6303168                       # Total written bytes from the system interface side
system.mem_ctrl.avgRdBW                        524.43                       # Average DRAM read bandwidth in MiByte/s
system.mem_ctrl.avgWrBW                        481.44                       # Average achieved write bandwidth in MiByte/s
system.mem_ctrl.avgRdBWSys                     524.43                       # Average system read bandwidth in MiByte/s
system.mem_ctrl.avgWrBWSys                     481.60                       # Average system write bandwidth in MiByte/s
system.mem_ctrl.peakBW                       12800.00                       # Theoretical peak bandwidth in MiByte/s
system.mem_ctrl.busUtil                          7.86                       # Data bus utilization in percentage
system.mem_ctrl.busUtilRead                      4.10                       # Data bus utilization in percentage for reads
system.mem_ctrl.busUtilWrite                     3.76                       # Data bus utilization in percentage for writes
system.mem_ctrl.totGap                    13088004000                       # Total gap between requests
system.mem_ctrl.avgGap                       63616.15                       # Average gap between requests
system.mem_ctrl.masterReadBytes::.cpu.inst        32256                       # Per-master bytes read from memory
system.mem_ctrl.masterReadBytes::.cpu.data      6831552                       # Per-master bytes read from memory
system.mem_ctrl.masterWriteBytes::.writebacks      6301184                       # Per-master bytes write to memory
system.mem_ctrl.masterReadRate::.cpu.inst 2464527.716997401789                       # Per-master bytes read from memory rate (Bytes/sec)
system.mem_ctrl.masterReadRate::.cpu.data 521966432.729074776173                       # Per-master bytes read from memory rate (Bytes/sec)
system.mem_ctrl.masterWriteRate::.writebacks 481443533.541063904762                       # Per-master bytes write to memory rate (Bytes/sec)
system.mem_ctrl.masterReadAccesses::.cpu.inst          504                       # Per-master read serviced memory accesses
system.mem_ctrl.masterReadAccesses::.cpu.data       106743                       # Per-master read serviced memory accesses
system.mem_ctrl.masterWriteAccesses::.writebacks        98487                       # Per-master write serviced memory accesses
system.mem_ctrl.masterReadTotalLat::.cpu.inst     12942500                       # Per-master read total memory access latency
system.mem_ctrl.masterReadTotalLat::.cpu.data   3048030750                       # Per-master read total memory access latency
system.mem_ctrl.masterWriteTotalLat::.writebacks 294714454500                       # Per-master write total memory access latency
system.mem_ctrl.masterReadAvgLat::.cpu.inst     25679.56                       # Per-master read average memory access latency
system.mem_ctrl.masterReadAvgLat::.cpu.data     28554.85                       # Per-master read average memory access latency
system.mem_ctrl.masterWriteAvgLat::.writebacks   2992419.86                       # Per-master write average memory access latency
system.mem_ctrl.pageHitRate                     90.89                       # Row buffer hit rate, read and write combined
system.mem_ctrl.rank1.actEnergy              67030320                       # Energy for activate commands per rank (pJ)
system.mem_ctrl.rank1.preEnergy              35623665                       # Energy for precharge commands per rank (pJ)
system.mem_ctrl.rank1.readEnergy            383475120                       # Energy for read commands per rank (pJ)
system.mem_ctrl.rank1.writeEnergy           257366880                       # Energy for write commands per rank (pJ)
system.mem_ctrl.rank1.refreshEnergy      1032595200.000000                       # Energy for refresh commands per rank (pJ)
system.mem_ctrl.rank1.actBackEnergy        3109791180                       # Energy for active background per rank (pJ)
system.mem_ctrl.rank1.preBackEnergy        2407061280                       # Energy for precharge background per rank (pJ)
system.mem_ctrl.rank1.actPowerDownEnergy            0                       # Energy for active power-down per rank (pJ)
system.mem_ctrl.rank1.prePowerDownEnergy            0                       # Energy for precharge power-down per rank (pJ)
system.mem_ctrl.rank1.selfRefreshEnergy             0                       # Energy for self refresh per rank (pJ)
system.mem_ctrl.rank1.totalEnergy          7292943645                       # Total energy per rank (pJ)
system.mem_ctrl.rank1.averagePower         557.219176                       # Core power per rank (mW)
system.mem_ctrl.rank1.totalIdleTime                 0                       # Total Idle time Per DRAM Rank
system.mem_ctrl.rank1.memoryStateTime::IDLE   6159822000                       # Time in different power states
system.mem_ctrl.rank1.memoryStateTime::REF    436800000                       # Time in different power states
system.mem_ctrl.rank1.memoryStateTime::SREF            0                       # Time in different power states
system.mem_ctrl.rank1.memoryStateTime::PRE_PDN            0                       # Time in different power states
system.mem_ctrl.rank1.memoryStateTime::ACT   6491484000                       # Time in different power states
system.mem_ctrl.rank1.memoryStateTime::ACT_PDN            0                       # Time in different power states
system.mem_ctrl.rank0.actEnergy              66573360                       # Energy for activate commands per rank (pJ)
system.mem_ctrl.rank0.preEnergy              35384580                       # Energy for precharge commands per rank (pJ)
system.mem_ctrl.rank0.readEnergy            382268460                       # Energy for read commands per rank (pJ)
system.mem_ctrl.rank0.writeEnergy           256573440                       # Energy for write commands per rank (pJ)
system.mem_ctrl.rank0.refreshEnergy      1032595200.000000                       # Energy for refresh commands per rank (pJ)
system.mem_ctrl.rank0.actBackEnergy        3106598040                       # Energy for active background per rank (pJ)
system.mem_ctrl.rank0.preBackEnergy        2409750240                       # Energy for precharge background per rank (pJ)
system.mem_ctrl.rank0.actPowerDownEnergy            0                       # Energy for active power-down per rank (pJ)
system.mem_ctrl.rank0.prePowerDownEnergy            0                       # Energy for precharge power-down per rank (pJ)
system.mem_ctrl.rank0.selfRefreshEnergy             0                       # Energy for self refresh per rank (pJ)
system.mem_ctrl.rank0.totalEnergy          7289743320                       # Total energy per rank (pJ)
system.mem_ctrl.rank0.averagePower         556.974655                       # Core power per rank (mW)
system.mem_ctrl.rank0.totalIdleTime                 0                       # Total Idle time Per DRAM Rank
system.mem_ctrl.rank0.memoryStateTime::IDLE   6167159750                       # Time in different power states
system.mem_ctrl.rank0.memoryStateTime::REF    436800000                       # Time in different power states
system.mem_ctrl.rank0.memoryStateTime::SREF            0                       # Time in different power states
system.mem_ctrl.rank0.memoryStateTime::PRE_PDN            0                       # Time in different power states
system.mem_ctrl.rank0.memoryStateTime::ACT   6484146250                       # Time in different power states
system.mem_ctrl.rank0.memoryStateTime::ACT_PDN            0                       # Time in different power states
system.mem_ctrl.power_state.pwrStateResidencyTicks::UNDEFINED  13088106000                       # Cumulative time (in ticks) in various power states
system.cache_medium.blocked_cycles::no_mshrs            0                       # number of cycles access was blocked
system.cache_medium.blocked_cycles::no_targets            0                       # number of cycles access was blocked
system.cache_medium.blocked::no_mshrs               0                       # number of cycles access was blocked
system.cache_medium.blocked::no_targets             0                       # number of cycles access was blocked
system.cache_medium.avg_blocked_cycles::no_mshrs          nan                       # average number of cycles each access was blocked
system.cache_medium.avg_blocked_cycles::no_targets          nan                       # average number of cycles each access was blocked
system.cache_medium.replacements                    0                       # number of replacements
system.cache_medium.power_state.pwrStateResidencyTicks::UNDEFINED  13088106000                       # Cumulative time (in ticks) in various power states
system.cache_medium.tags.tagsinuse                  0                       # Cycle average of tags in use
system.cache_medium.tags.total_refs                 0                       # Total number of references to valid blocks.
system.cache_medium.tags.sampled_refs               0                       # Sample count of references to valid blocks.
system.cache_medium.tags.avg_refs                 nan                       # Average number of references to valid blocks.
system.cache_medium.tags.warmup_cycle               0                       # Cycle when the warmup percentage was hit.
system.cache_medium.tags.tag_accesses               0                       # Number of tag accesses
system.cache_medium.tags.data_accesses              0                       # Number of data accesses
system.cache_medium.tags.power_state.pwrStateResidencyTicks::UNDEFINED  13088106000                       # Cumulative time (in ticks) in various power states
system.clk_domain.clock                          1000                       # Clock period in ticks
system.clk_domain.voltage_domain.voltage            1                       # Voltage in Volts
system.dcache.demand_hits::.cpu.data           753094                       # number of demand (read+write) hits
system.dcache.demand_hits::total               753094                       # number of demand (read+write) hits
system.dcache.overall_hits::.cpu.data          753094                       # number of overall hits
system.dcache.overall_hits::total              753094                       # number of overall hits
system.dcache.demand_misses::.cpu.data         106823                       # number of demand (read+write) misses
system.dcache.demand_misses::total             106823                       # number of demand (read+write) misses
system.dcache.overall_misses::.cpu.data        106823                       # number of overall misses
system.dcache.overall_misses::total            106823                       # number of overall misses
system.dcache.demand_miss_latency::.cpu.data   8414492000                       # number of demand (read+write) miss cycles
system.dcache.demand_miss_latency::total   8414492000                       # number of demand (read+write) miss cycles
system.dcache.overall_miss_latency::.cpu.data   8414492000                       # number of overall miss cycles
system.dcache.overall_miss_latency::total   8414492000                       # number of overall miss cycles
system.dcache.demand_accesses::.cpu.data       859917                       # number of demand (read+write) accesses
system.dcache.demand_accesses::total           859917                       # number of demand (read+write) accesses
system.dcache.overall_accesses::.cpu.data       859917                       # number of overall (read+write) accesses
system.dcache.overall_accesses::total          859917                       # number of overall (read+write) accesses
system.dcache.demand_miss_rate::.cpu.data     0.124225                       # miss rate for demand accesses
system.dcache.demand_miss_rate::total        0.124225                       # miss rate for demand accesses
system.dcache.overall_miss_rate::.cpu.data     0.124225                       # miss rate for overall accesses
system.dcache.overall_miss_rate::total       0.124225                       # miss rate for overall accesses
system.dcache.demand_avg_miss_latency::.cpu.data 78770.414611                       # average overall miss latency
system.dcache.demand_avg_miss_latency::total 78770.414611                       # average overall miss latency
system.dcache.overall_avg_miss_latency::.cpu.data 78770.414611                       # average overall miss latency
system.dcache.overall_avg_miss_latency::total 78770.414611                       # average overall miss latency
system.dcache.blocked_cycles::no_mshrs              0                       # number of cycles access was blocked
system.dcache.blocked_cycles::no_targets            0                       # number of cycles access was blocked
system.dcache.blocked::no_mshrs                     0                       # number of cycles access was blocked
system.dcache.blocked::no_targets                   0                       # number of cycles access was blocked
system.dcache.avg_blocked_cycles::no_mshrs          nan                       # average number of cycles each access was blocked
system.dcache.avg_blocked_cycles::no_targets          nan                       # average number of cycles each access was blocked
system.dcache.writebacks::.writebacks          106463                       # number of writebacks
system.dcache.writebacks::total                106463                       # number of writebacks
system.dcache.demand_mshr_misses::.cpu.data       106823                       # number of demand (read+write) MSHR misses
system.dcache.demand_mshr_misses::total        106823                       # number of demand (read+write) MSHR misses
system.dcache.overall_mshr_misses::.cpu.data       106823                       # number of overall MSHR misses
system.dcache.overall_mshr_misses::total       106823                       # number of overall MSHR misses
system.dcache.demand_mshr_miss_latency::.cpu.data   8200848000                       # number of demand (read+write) MSHR miss cycles
system.dcache.demand_mshr_miss_latency::total   8200848000                       # number of demand (read+write) MSHR miss cycles
system.dcache.overall_mshr_miss_latency::.cpu.data   8200848000                       # number of overall MSHR miss cycles
system.dcache.overall_mshr_miss_latency::total   8200848000                       # number of overall MSHR miss cycles
system.dcache.demand_mshr_miss_rate::.cpu.data     0.124225                       # mshr miss rate for demand accesses
system.dcache.demand_mshr_miss_rate::total     0.124225                       # mshr miss rate for demand accesses
system.dcache.overall_mshr_miss_rate::.cpu.data     0.124225                       # mshr miss rate for overall accesses
[...]
system.dcache.tags.occ_percent::total        0.999162                       # Average percentage of cache occupancy
system.dcache.tags.occ_task_id_blocks::1024          256                       # Occupied blocks per task id
system.dcache.tags.age_task_id_blocks_1024::0           83                       # Occupied blocks per task id
system.dcache.tags.age_task_id_blocks_1024::1          173                       # Occupied blocks per task id
system.dcache.tags.occ_task_id_percent::1024            1                       # Percentage of cache occupancy per task id
system.dcache.tags.tag_accesses               6836291                       # Number of tag accesses
system.dcache.tags.data_accesses              6836291                       # Number of data accesses
system.dcache.tags.power_state.pwrStateResidencyTicks::UNDEFINED  92736728000                       # Cumulative time (in ticks) in various power states
system.cache_large.blocked_cycles::no_mshrs            0                       # number of cycles access was blocked
system.cache_large.blocked_cycles::no_targets            0                       # number of cycles access was blocked
system.cache_large.blocked::no_mshrs                0                       # number of cycles access was blocked
system.cache_large.blocked::no_targets              0                       # number of cycles access was blocked
system.cache_large.avg_blocked_cycles::no_mshrs          nan                       # average number of cycles each access was blocked
system.cache_large.avg_blocked_cycles::no_targets          nan                       # average number of cycles each access was blocked
system.cache_large.replacements                     0                       # number of replacements
system.cache_large.power_state.pwrStateResidencyTicks::UNDEFINED  92736728000                       # Cumulative time (in ticks) in various power states
system.cache_large.tags.tagsinuse                   0                       # Cycle average of tags in use
system.cache_large.tags.total_refs                  0                       # Total number of references to valid blocks.
system.cache_large.tags.sampled_refs                0                       # Sample count of references to valid blocks.
system.cache_large.tags.avg_refs                  nan                       # Average number of references to valid blocks.
system.cache_large.tags.warmup_cycle                0                       # Cycle when the warmup percentage was hit.
system.cache_large.tags.tag_accesses                0                       # Number of tag accesses
system.cache_large.tags.data_accesses               0                       # Number of data accesses
system.cache_large.tags.power_state.pwrStateResidencyTicks::UNDEFINED  92736728000                       # Cumulative time (in ticks) in various power states
system.l2cache.demand_hits::.cpu.inst              62                       # number of demand (read+write) hits
system.l2cache.demand_hits::.cpu.data              67                       # number of demand (read+write) hits
system.l2cache.demand_hits::total                 129                       # number of demand (read+write) hits
system.l2cache.overall_hits::.cpu.inst             62                       # number of overall hits
system.l2cache.overall_hits::.cpu.data             67                       # number of overall hits
system.l2cache.overall_hits::total                129                       # number of overall hits
system.l2cache.demand_misses::.cpu.inst           577                       # number of demand (read+write) misses
system.l2cache.demand_misses::.cpu.data        758928                       # number of demand (read+write) misses
system.l2cache.demand_misses::total            759505                       # number of demand (read+write) misses
system.l2cache.overall_misses::.cpu.inst          577                       # number of overall misses
system.l2cache.overall_misses::.cpu.data       758928                       # number of overall misses
system.l2cache.overall_misses::total           759505                       # number of overall misses
system.l2cache.demand_miss_latency::.cpu.inst     36228000                       # number of demand (read+write) miss cycles
system.l2cache.demand_miss_latency::.cpu.data  55554814000                       # number of demand (read+write) miss cycles
system.l2cache.demand_miss_latency::total  55591042000                       # number of demand (read+write) miss cycles
system.l2cache.overall_miss_latency::.cpu.inst     36228000                       # number of overall miss cycles
system.l2cache.overall_miss_latency::.cpu.data  55554814000                       # number of overall miss cycles
system.l2cache.overall_miss_latency::total  55591042000                       # number of overall miss cycles
system.l2cache.demand_accesses::.cpu.inst          639                       # number of demand (read+write) accesses
system.l2cache.demand_accesses::.cpu.data       758995                       # number of demand (read+write) accesses
system.l2cache.demand_accesses::total          759634                       # number of demand (read+write) accesses
system.l2cache.overall_accesses::.cpu.inst          639                       # number of overall (read+write) accesses
system.l2cache.overall_accesses::.cpu.data       758995                       # number of overall (read+write) accesses
system.l2cache.overall_accesses::total         759634                       # number of overall (read+write) accesses
system.l2cache.demand_miss_rate::.cpu.inst     0.902973                       # miss rate for demand accesses
system.l2cache.demand_miss_rate::.cpu.data     0.999912                       # miss rate for demand accesses
system.l2cache.demand_miss_rate::total       0.999830                       # miss rate for demand accesses
system.l2cache.overall_miss_rate::.cpu.inst     0.902973                       # miss rate for overall accesses
system.l2cache.overall_miss_rate::.cpu.data     0.999912                       # miss rate for overall accesses
system.l2cache.overall_miss_rate::total      0.999830                       # miss rate for overall accesses
system.l2cache.demand_avg_miss_latency::.cpu.inst 62786.828423                       # average overall miss latency
system.l2cache.demand_avg_miss_latency::.cpu.data 73201.692387                       # average overall miss latency
system.l2cache.demand_avg_miss_latency::total 73193.780159                       # average overall miss latency
system.l2cache.overall_avg_miss_latency::.cpu.inst 62786.828423                       # average overall miss latency
system.l2cache.overall_avg_miss_latency::.cpu.data 73201.692387                       # average overall miss latency
system.l2cache.overall_avg_miss_latency::total 73193.780159                       # average overall miss latency
system.l2cache.blocked_cycles::no_mshrs             0                       # number of cycles access was blocked
system.l2cache.blocked_cycles::no_targets            0                       # number of cycles access was blocked
system.l2cache.blocked::no_mshrs                    0                       # number of cycles access was blocked
system.l2cache.blocked::no_targets                  0                       # number of cycles access was blocked
system.l2cache.avg_blocked_cycles::no_mshrs          nan                       # average number of cycles each access was blocked
system.l2cache.avg_blocked_cycles::no_targets          nan                       # average number of cycles each access was blocked
system.l2cache.writebacks::.writebacks         758356                       # number of writebacks
system.l2cache.writebacks::total               758356                       # number of writebacks
system.l2cache.demand_mshr_misses::.cpu.inst          577                       # number of demand (read+write) MSHR misses
system.l2cache.demand_mshr_misses::.cpu.data       758928                       # number of demand (read+write) MSHR misses
system.l2cache.demand_mshr_misses::total       759505                       # number of demand (read+write) MSHR misses
system.l2cache.overall_mshr_misses::.cpu.inst          577                       # number of overall MSHR misses
system.l2cache.overall_mshr_misses::.cpu.data       758928                       # number of overall MSHR misses
system.l2cache.overall_mshr_misses::total       759505                       # number of overall MSHR misses
system.l2cache.demand_mshr_miss_latency::.cpu.inst     35074000                       # number of demand (read+write) MSHR miss cycles
system.l2cache.demand_mshr_miss_latency::.cpu.data  54036958000                       # number of demand (read+write) MSHR miss cycles
system.l2cache.demand_mshr_miss_latency::total  54072032000                       # number of demand (read+write) MSHR miss cycles
system.l2cache.overall_mshr_miss_latency::.cpu.inst     35074000                       # number of overall MSHR miss cycles
system.l2cache.overall_mshr_miss_latency::.cpu.data  54036958000                       # number of overall MSHR miss cycles
system.l2cache.overall_mshr_miss_latency::total  54072032000                       # number of overall MSHR miss cycles
system.l2cache.demand_mshr_miss_rate::.cpu.inst     0.902973                       # mshr miss rate for demand accesses
system.l2cache.demand_mshr_miss_rate::.cpu.data     0.999912                       # mshr miss rate for demand accesses
system.l2cache.demand_mshr_miss_rate::total     0.999830                       # mshr miss rate for demand accesses
system.l2cache.overall_mshr_miss_rate::.cpu.inst     0.902973                       # mshr miss rate for overall accesses
system.l2cache.overall_mshr_miss_rate::.cpu.data     0.999912                       # mshr miss rate for overall accesses
system.l2cache.overall_mshr_miss_rate::total     0.999830                       # mshr miss rate for overall accesses
system.l2cache.demand_avg_mshr_miss_latency::.cpu.inst 60786.828423                       # average overall mshr miss latency
system.l2cache.demand_avg_mshr_miss_latency::.cpu.data 71201.692387                       # average overall mshr miss latency
system.l2cache.demand_avg_mshr_miss_latency::total 71193.780159                       # average overall mshr miss latency
system.l2cache.overall_avg_mshr_miss_latency::.cpu.inst 60786.828423                       # average overall mshr miss latency
system.l2cache.overall_avg_mshr_miss_latency::.cpu.data 71201.692387                       # average overall mshr miss latency
system.l2cache.overall_avg_mshr_miss_latency::total 71193.780159                       # average overall mshr miss latency
system.l2cache.replacements                    759138                       # number of replacements
system.l2cache.ReadReq_hits::.cpu.inst             62                       # number of ReadReq hits
system.l2cache.ReadReq_hits::.cpu.data             67                       # number of ReadReq hits
system.l2cache.ReadReq_hits::total                129                       # number of ReadReq hits
system.l2cache.ReadReq_misses::.cpu.inst          577                       # number of ReadReq misses
system.l2cache.ReadReq_misses::.cpu.data       758928                       # number of ReadReq misses
system.l2cache.ReadReq_misses::total           759505                       # number of ReadReq misses
system.l2cache.ReadReq_miss_latency::.cpu.inst     36228000                       # number of ReadReq miss cycles
system.l2cache.ReadReq_miss_latency::.cpu.data  55554814000                       # number of ReadReq miss cycles
system.l2cache.ReadReq_miss_latency::total  55591042000                       # number of ReadReq miss cycles
system.l2cache.ReadReq_accesses::.cpu.inst          639                       # number of ReadReq accesses(hits+misses)
system.l2cache.ReadReq_accesses::.cpu.data       758995                       # number of ReadReq accesses(hits+misses)
system.l2cache.ReadReq_accesses::total         759634                       # number of ReadReq accesses(hits+misses)
system.l2cache.ReadReq_miss_rate::.cpu.inst     0.902973                       # miss rate for ReadReq accesses
system.l2cache.ReadReq_miss_rate::.cpu.data     0.999912                       # miss rate for ReadReq accesses
system.l2cache.ReadReq_miss_rate::total      0.999830                       # miss rate for ReadReq accesses
system.l2cache.ReadReq_avg_miss_latency::.cpu.inst 62786.828423                       # average ReadReq miss latency
system.l2cache.ReadReq_avg_miss_latency::.cpu.data 73201.692387                       # average ReadReq miss latency
system.l2cache.ReadReq_avg_miss_latency::total 73193.780159                       # average ReadReq miss latency
system.l2cache.ReadReq_mshr_misses::.cpu.inst          577                       # number of ReadReq MSHR misses
system.l2cache.ReadReq_mshr_misses::.cpu.data       758928                       # number of ReadReq MSHR misses
system.l2cache.ReadReq_mshr_misses::total       759505                       # number of ReadReq MSHR misses
system.l2cache.ReadReq_mshr_miss_latency::.cpu.inst     35074000                       # number of ReadReq MSHR miss cycles
system.l2cache.ReadReq_mshr_miss_latency::.cpu.data  54036958000                       # number of ReadReq MSHR miss cycles
system.l2cache.ReadReq_mshr_miss_latency::total  54072032000                       # number of ReadReq MSHR miss cycles
system.l2cache.ReadReq_mshr_miss_rate::.cpu.inst     0.902973                       # mshr miss rate for ReadReq accesses
system.l2cache.ReadReq_mshr_miss_rate::.cpu.data     0.999912                       # mshr miss rate for ReadReq accesses
system.l2cache.ReadReq_mshr_miss_rate::total     0.999830                       # mshr miss rate for ReadReq accesses
system.l2cache.ReadReq_avg_mshr_miss_latency::.cpu.inst 60786.828423                       # average ReadReq mshr miss latency
system.l2cache.ReadReq_avg_mshr_miss_latency::.cpu.data 71201.692387                       # average ReadReq mshr miss latency
system.l2cache.ReadReq_avg_mshr_miss_latency::total 71193.780159                       # average ReadReq mshr miss latency
system.l2cache.WritebackDirty_hits::.writebacks       758636                       # number of WritebackDirty hits
system.l2cache.WritebackDirty_hits::total       758636                       # number of WritebackDirty hits
system.l2cache.WritebackDirty_accesses::.writebacks       758636                       # number of WritebackDirty accesses(hits+misses)
system.l2cache.WritebackDirty_accesses::total       758636                       # number of WritebackDirty accesses(hits+misses)
system.l2cache.power_state.pwrStateResidencyTicks::UNDEFINED  92736728000                       # Cumulative time (in ticks) in various power states
system.l2cache.tags.tagsinuse              511.629043                       # Cycle average of tags in use
system.l2cache.tags.total_refs                1518270                       # Total number of references to valid blocks.
system.l2cache.tags.sampled_refs               759650                       # Sample count of references to valid blocks.
system.l2cache.tags.avg_refs                 1.998644                       # Average number of references to valid blocks.
system.l2cache.tags.warmup_cycle                78000                       # Cycle when the warmup percentage was hit.
system.l2cache.tags.occ_blocks::.writebacks     0.052811                       # Average occupied blocks per requestor
system.l2cache.tags.occ_blocks::.cpu.inst     0.308782                       # Average occupied blocks per requestor
system.l2cache.tags.occ_blocks::.cpu.data   511.267449                       # Average occupied blocks per requestor
system.l2cache.tags.occ_percent::.writebacks     0.000103                       # Average percentage of cache occupancy
system.l2cache.tags.occ_percent::.cpu.inst     0.000603                       # Average percentage of cache occupancy
system.l2cache.tags.occ_percent::.cpu.data     0.998569                       # Average percentage of cache occupancy
system.l2cache.tags.occ_percent::total       0.999275                       # Average percentage of cache occupancy
system.l2cache.tags.occ_task_id_blocks::1024          512                       # Occupied blocks per task id
system.l2cache.tags.age_task_id_blocks_1024::0           83                       # Occupied blocks per task id
system.l2cache.tags.age_task_id_blocks_1024::1          429                       # Occupied blocks per task id
system.l2cache.tags.occ_task_id_percent::1024            1                       # Percentage of cache occupancy per task id
system.l2cache.tags.tag_accesses              2277920                       # Number of tag accesses
system.l2cache.tags.data_accesses             2277920                       # Number of data accesses
system.l2cache.tags.power_state.pwrStateResidencyTicks::UNDEFINED  92736728000                       # Cumulative time (in ticks) in various power states
system.l2bar.trans_dist::ReadReq               759634                       # Transaction distribution
system.l2bar.trans_dist::ReadResp              759634                       # Transaction distribution
system.l2bar.trans_dist::WritebackDirty        758636                       # Transaction distribution
system.l2bar.pkt_count_system.dcache.mem_side::system.l2cache.cpu_side      2276626                       # Packet count per connected master and slave (bytes)
system.l2bar.pkt_count_system.icache.mem_side::system.l2cache.cpu_side         1278                       # Packet count per connected master and slave (bytes)
system.l2bar.pkt_count::total                 2277904                       # Packet count per connected master and slave (bytes)
system.l2bar.pkt_size_system.dcache.mem_side::system.l2cache.cpu_side     97128384                       # Cumulative packet size per connected master and slave (bytes)
system.l2bar.pkt_size_system.icache.mem_side::system.l2cache.cpu_side        40896                       # Cumulative packet size per connected master and slave (bytes)
system.l2bar.pkt_size::total                 97169280                       # Cumulative packet size per connected master and slave (bytes)
system.l2bar.respLayer1.occupancy             3195000                       # Layer occupancy (ticks)
system.l2bar.respLayer1.utilization               0.0                       # Layer utilization (%)
system.l2bar.reqLayer0.occupancy           4552814000                       # Layer occupancy (ticks)
system.l2bar.reqLayer0.utilization                4.9                       # Layer utilization (%)
system.l2bar.respLayer0.occupancy          3794975000                       # Layer occupancy (ticks)
system.l2bar.respLayer0.utilization               4.1                       # Layer utilization (%)
system.l2bar.power_state.pwrStateResidencyTicks::UNDEFINED  92736728000                       # Cumulative time (in ticks) in various power states
system.cpu.dtb.walker.power_state.pwrStateResidencyTicks::UNDEFINED  92736728000                       # Cumulative time (in ticks) in various power states
system.cpu.interrupts.clk_domain.clock          16000                       # Clock period in ticks
system.cpu.itb.walker.power_state.pwrStateResidencyTicks::UNDEFINED  92736728000                       # Cumulative time (in ticks) in various power states
system.cpu.power_state.numTransitions               1                       # Number of power state transitions
system.cpu.power_state.pwrStateResidencyTicks::ON  92736728000                       # Cumulative time (in ticks) in various power states

---------- End Simulation Statistics   ----------
