
---------- Begin Simulation Statistics ----------
final_tick                                 3984600000                       # Number of ticks from beginning of simulation (restored from checkpoints and never reset)
host_inst_rate                                 115668                       # Simulator instruction rate (inst/s)
host_mem_usage                               34262588                       # Number of bytes of host memory used
host_op_rate                                   219524                       # Simulator op (including micro ops) rate (op/s)
host_seconds                                     8.65                       # Real time elapsed on the host
host_tick_rate                              460856250                       # Simulator tick rate (ticks/s)
sim_freq                                 1000000000000                       # Frequency of simulated ticks
sim_insts                                     1000024                       # Number of instructions simulated
sim_ops                                       1897984                       # Number of ops (including micro ops) simulated
sim_seconds                                  0.003985                       # Number of seconds simulated
sim_ticks                                  3984600000                       # Number of ticks simulated
system.cpu.Branches                            223657                       # Number of branches fetched
system.cpu.committedInsts                     1000024                       # Number of instructions committed
system.cpu.committedOps                       1897984                       # Number of ops (including micro ops) committed
system.cpu.dtb.rdAccesses                      224662                       # TLB accesses on read requests
system.cpu.dtb.rdMisses                            81                       # TLB misses on read requests
system.cpu.dtb.wrAccesses                      144211                       # TLB accesses on write requests
system.cpu.dtb.wrMisses                            45                       # TLB misses on write requests
system.cpu.idle_fraction                            0                       # Percentage of idle cycles
system.cpu.itb.rdAccesses                           0                       # TLB accesses on read requests
system.cpu.itb.rdMisses                             0                       # TLB misses on read requests
system.cpu.itb.wrAccesses                     1309643                       # TLB accesses on write requests
system.cpu.itb.wrMisses                           177                       # TLB misses on write requests
system.cpu.not_idle_fraction                        1                       # Percentage of non-idle cycles
system.cpu.numCycles                          3984589                       # number of cpu cycles simulated
system.cpu.numWorkItemsCompleted                    0                       # number of work items this cpu completed
system.cpu.numWorkItemsStarted                      0                       # number of work items this cpu started
system.cpu.num_busy_cycles                    3984589                       # Number of busy cycles
system.cpu.num_cc_register_reads              1153911                       # number of times the CC registers were read
system.cpu.num_cc_register_writes              616673                       # number of times the CC registers were written
system.cpu.num_conditional_control_insts       165985                       # number of instructions that are conditional controls
system.cpu.num_fp_alu_accesses                  24024                       # Number of float alu accesses
system.cpu.num_fp_insts                         24024                       # number of float instructions
system.cpu.num_fp_register_reads                38683                       # number of times the floating registers were read
system.cpu.num_fp_register_writes               19045                       # number of times the floating registers were written
system.cpu.num_func_calls                       38890                       # number of times a function call or return occured
system.cpu.num_idle_cycles                          0                       # Number of idle cycles
system.cpu.num_int_alu_accesses               1874791                       # Number of integer alu accesses
system.cpu.num_int_insts                      1874791                       # number of integer instructions
system.cpu.num_int_register_reads             3674306                       # number of times the integer registers were read
system.cpu.num_int_register_writes            1506926                       # number of times the integer registers were written
system.cpu.num_load_insts                      224364                       # Number of load instructions
system.cpu.num_mem_refs                        368510                       # number of memory refs
system.cpu.num_store_insts                     144146                       # Number of store instructions
system.cpu.num_vec_alu_accesses                     0                       # Number of vector alu accesses
system.cpu.num_vec_insts                            0                       # number of vector instructions
system.cpu.num_vec_register_reads                   0                       # number of times the vector registers were read
system.cpu.num_vec_register_writes                  0                       # number of times the vector registers were written
system.cpu.op_class::No_OpClass                  7478      0.39%      0.39% # Class of executed instruction
system.cpu.op_class::IntAlu                   1502910     79.18%     79.58% # Class of executed instruction
system.cpu.op_class::IntMult                      314      0.02%     79.59% # Class of executed instruction
system.cpu.op_class::IntDiv                       217      0.01%     79.61% # Class of executed instruction
system.cpu.op_class::FloatAdd                      77      0.00%     79.61% # Class of executed instruction
system.cpu.op_class::FloatCmp                       0      0.00%     79.61% # Class of executed instruction
system.cpu.op_class::FloatCvt                       0      0.00%     79.61% # Class of executed instruction
system.cpu.op_class::FloatMult                      0      0.00%     79.61% # Class of executed instruction
system.cpu.op_class::FloatMultAcc                   0      0.00%     79.61% # Class of executed instruction
system.cpu.op_class::FloatDiv                       0      0.00%     79.61% # Class of executed instruction
system.cpu.op_class::FloatMisc                      0      0.00%     79.61% # Class of executed instruction
system.cpu.op_class::FloatSqrt                      0      0.00%     79.61% # Class of executed instruction
system.cpu.op_class::SimdAdd                       16      0.00%     79.61% # Class of executed instruction
system.cpu.op_class::SimdAddAcc                     0      0.00%     79.61% # Class of executed instruction
system.cpu.op_class::SimdAlu                     9070      0.48%     80.09% # Class of executed instruction
system.cpu.op_class::SimdCmp                      138      0.01%     80.10% # Class of executed instruction
system.cpu.op_class::SimdCvt                     4544      0.24%     80.34% # Class of executed instruction
system.cpu.op_class::SimdMisc                    4704      0.25%     80.58% # Class of executed instruction
system.cpu.op_class::SimdMult                       0      0.00%     80.58% # Class of executed instruction
system.cpu.op_class::SimdMultAcc                    0      0.00%     80.58% # Class of executed instruction
system.cpu.op_class::SimdShift                      0      0.00%     80.58% # Class of executed instruction
system.cpu.op_class::SimdShiftAcc                   0      0.00%     80.58% # Class of executed instruction
system.cpu.op_class::SimdDiv                        0      0.00%     80.58% # Class of executed instruction
system.cpu.op_class::SimdSqrt                       0      0.00%     80.58% # Class of executed instruction
system.cpu.op_class::SimdFloatAdd                   0      0.00%     80.58% # Class of executed instruction
system.cpu.op_class::SimdFloatAlu                   0      0.00%     80.58% # Class of executed instruction
system.cpu.op_class::SimdFloatCmp                   0      0.00%     80.58% # Class of executed instruction
system.cpu.op_class::SimdFloatCvt                  21      0.00%     80.58% # Class of executed instruction
system.cpu.op_class::SimdFloatDiv                   0      0.00%     80.58% # Class of executed instruction
system.cpu.op_class::SimdFloatMisc                  0      0.00%     80.58% # Class of executed instruction
system.cpu.op_class::SimdFloatMult                  0      0.00%     80.58% # Class of executed instruction
system.cpu.op_class::SimdFloatMultAcc               0      0.00%     80.58% # Class of executed instruction
system.cpu.op_class::SimdFloatSqrt                  0      0.00%     80.58% # Class of executed instruction
system.cpu.op_class::SimdReduceAdd                  0      0.00%     80.58% # Class of executed instruction
system.cpu.op_class::SimdReduceAlu                  0      0.00%     80.58% # Class of executed instruction
system.cpu.op_class::SimdReduceCmp                  0      0.00%     80.58% # Class of executed instruction
system.cpu.op_class::SimdFloatReduceAdd             0      0.00%     80.58% # Class of executed instruction
system.cpu.op_class::SimdFloatReduceCmp             0      0.00%     80.58% # Class of executed instruction
system.cpu.op_class::SimdAes                        0      0.00%     80.58% # Class of executed instruction
system.cpu.op_class::SimdAesMix                     0      0.00%     80.58% # Class of executed instruction
system.cpu.op_class::SimdSha1Hash                   0      0.00%     80.58% # Class of executed instruction
system.cpu.op_class::SimdSha1Hash2                  0      0.00%     80.58% # Class of executed instruction
system.cpu.op_class::SimdSha256Hash                 0      0.00%     80.58% # Class of executed instruction
system.cpu.op_class::SimdSha256Hash2                0      0.00%     80.58% # Class of executed instruction
system.cpu.op_class::SimdShaSigma2                  0      0.00%     80.58% # Class of executed instruction
system.cpu.op_class::SimdShaSigma3                  0      0.00%     80.58% # Class of executed instruction
system.cpu.op_class::SimdPredAlu                    0      0.00%     80.58% # Class of executed instruction
system.cpu.op_class::MemRead                   219921     11.59%     92.17% # Class of executed instruction
system.cpu.op_class::MemWrite                  143441      7.56%     99.73% # Class of executed instruction
system.cpu.op_class::FloatMemRead                4443      0.23%     99.96% # Class of executed instruction
system.cpu.op_class::FloatMemWrite                705      0.04%    100.00% # Class of executed instruction
system.cpu.op_class::IprAccess                      0      0.00%    100.00% # Class of executed instruction
system.cpu.op_class::InstPrefetch                   0      0.00%    100.00% # Class of executed instruction
system.cpu.op_class::total                    1897999                       # Class of executed instruction
system.cpu.workload.numSyscalls                    29                       # Number of system calls
system.dynamic_cache.flushTicks                     0                       # Ticks taken to flush
system.dynamic_cache.numFlushes                     0                       # Number of Flushes Taken
system.cache_small.demand_hits::.cpu.inst         6929                       # number of demand (read+write) hits
system.cache_small.demand_hits::.cpu.data         1836                       # number of demand (read+write) hits
system.cache_small.demand_hits::total            8765                       # number of demand (read+write) hits
system.cache_small.overall_hits::.cpu.inst         6929                       # number of overall hits
system.cache_small.overall_hits::.cpu.data         1836                       # number of overall hits
system.cache_small.overall_hits::total           8765                       # number of overall hits
system.cache_small.demand_misses::.cpu.inst         2302                       # number of demand (read+write) misses
system.cache_small.demand_misses::.cpu.data         1872                       # number of demand (read+write) misses
system.cache_small.demand_misses::total          4174                       # number of demand (read+write) misses
system.cache_small.overall_misses::.cpu.inst         2302                       # number of overall misses
system.cache_small.overall_misses::.cpu.data         1872                       # number of overall misses
system.cache_small.overall_misses::total         4174                       # number of overall misses
system.cache_small.demand_miss_latency::.cpu.inst    139919000                       # number of demand (read+write) miss cycles
system.cache_small.demand_miss_latency::.cpu.data    117099000                       # number of demand (read+write) miss cycles
system.cache_small.demand_miss_latency::total    257018000                       # number of demand (read+write) miss cycles
system.cache_small.overall_miss_latency::.cpu.inst    139919000                       # number of overall miss cycles
system.cache_small.overall_miss_latency::.cpu.data    117099000                       # number of overall miss cycles
system.cache_small.overall_miss_latency::total    257018000                       # number of overall miss cycles
system.cache_small.demand_accesses::.cpu.inst         9231                       # number of demand (read+write) accesses
system.cache_small.demand_accesses::.cpu.data         3708                       # number of demand (read+write) accesses
system.cache_small.demand_accesses::total        12939                       # number of demand (read+write) accesses
system.cache_small.overall_accesses::.cpu.inst         9231                       # number of overall (read+write) accesses
system.cache_small.overall_accesses::.cpu.data         3708                       # number of overall (read+write) accesses
system.cache_small.overall_accesses::total        12939                       # number of overall (read+write) accesses
system.cache_small.demand_miss_rate::.cpu.inst     0.249377                       # miss rate for demand accesses
system.cache_small.demand_miss_rate::.cpu.data     0.504854                       # miss rate for demand accesses
system.cache_small.demand_miss_rate::total     0.322591                       # miss rate for demand accesses
system.cache_small.overall_miss_rate::.cpu.inst     0.249377                       # miss rate for overall accesses
system.cache_small.overall_miss_rate::.cpu.data     0.504854                       # miss rate for overall accesses
system.cache_small.overall_miss_rate::total     0.322591                       # miss rate for overall accesses
system.cache_small.demand_avg_miss_latency::.cpu.inst 60781.494353                       # average overall miss latency
system.cache_small.demand_avg_miss_latency::.cpu.data 62552.884615                       # average overall miss latency
system.cache_small.demand_avg_miss_latency::total 61575.946334                       # average overall miss latency
system.cache_small.overall_avg_miss_latency::.cpu.inst 60781.494353                       # average overall miss latency
system.cache_small.overall_avg_miss_latency::.cpu.data 62552.884615                       # average overall miss latency
system.cache_small.overall_avg_miss_latency::total 61575.946334                       # average overall miss latency
system.cache_small.blocked_cycles::no_mshrs            0                       # number of cycles access was blocked
system.cache_small.blocked_cycles::no_targets            0                       # number of cycles access was blocked
system.cache_small.blocked::no_mshrs                0                       # number of cycles access was blocked
system.cache_small.blocked::no_targets              0                       # number of cycles access was blocked
system.cache_small.avg_blocked_cycles::no_mshrs          nan                       # average number of cycles each access was blocked
system.cache_small.avg_blocked_cycles::no_targets          nan                       # average number of cycles each access was blocked
system.cache_small.writebacks::.writebacks          122                       # number of writebacks
system.cache_small.writebacks::total              122                       # number of writebacks
system.cache_small.demand_mshr_misses::.cpu.inst         2302                       # number of demand (read+write) MSHR misses
system.cache_small.demand_mshr_misses::.cpu.data         1872                       # number of demand (read+write) MSHR misses
system.cache_small.demand_mshr_misses::total         4174                       # number of demand (read+write) MSHR misses
system.cache_small.overall_mshr_misses::.cpu.inst         2302                       # number of overall MSHR misses
system.cache_small.overall_mshr_misses::.cpu.data         1872                       # number of overall MSHR misses
system.cache_small.overall_mshr_misses::total         4174                       # number of overall MSHR misses
system.cache_small.demand_mshr_miss_latency::.cpu.inst    135315000                       # number of demand (read+write) MSHR miss cycles
system.cache_small.demand_mshr_miss_latency::.cpu.data    113355000                       # number of demand (read+write) MSHR miss cycles
system.cache_small.demand_mshr_miss_latency::total    248670000                       # number of demand (read+write) MSHR miss cycles
system.cache_small.overall_mshr_miss_latency::.cpu.inst    135315000                       # number of overall MSHR miss cycles
system.cache_small.overall_mshr_miss_latency::.cpu.data    113355000                       # number of overall MSHR miss cycles
system.cache_small.overall_mshr_miss_latency::total    248670000                       # number of overall MSHR miss cycles
system.cache_small.demand_mshr_miss_rate::.cpu.inst     0.249377                       # mshr miss rate for demand accesses
system.cache_small.demand_mshr_miss_rate::.cpu.data     0.504854                       # mshr miss rate for demand accesses
system.cache_small.demand_mshr_miss_rate::total     0.322591                       # mshr miss rate for demand accesses
system.cache_small.overall_mshr_miss_rate::.cpu.inst     0.249377                       # mshr miss rate for overall accesses
system.cache_small.overall_mshr_miss_rate::.cpu.data     0.504854                       # mshr miss rate for overall accesses
system.cache_small.overall_mshr_miss_rate::total     0.322591                       # mshr miss rate for overall accesses
system.cache_small.demand_avg_mshr_miss_latency::.cpu.inst 58781.494353                       # average overall mshr miss latency
system.cache_small.demand_avg_mshr_miss_latency::.cpu.data 60552.884615                       # average overall mshr miss latency
system.cache_small.demand_avg_mshr_miss_latency::total 59575.946334                       # average overall mshr miss latency
system.cache_small.overall_avg_mshr_miss_latency::.cpu.inst 58781.494353                       # average overall mshr miss latency
system.cache_small.overall_avg_mshr_miss_latency::.cpu.data 60552.884615                       # average overall mshr miss latency
system.cache_small.overall_avg_mshr_miss_latency::total 59575.946334                       # average overall mshr miss latency
system.cache_small.replacements                   991                       # number of replacements
system.cache_small.ReadReq_hits::.cpu.inst         6929                       # number of ReadReq hits
system.cache_small.ReadReq_hits::.cpu.data         1836                       # number of ReadReq hits
system.cache_small.ReadReq_hits::total           8765                       # number of ReadReq hits
system.cache_small.ReadReq_misses::.cpu.inst         2302                       # number of ReadReq misses
system.cache_small.ReadReq_misses::.cpu.data         1872                       # number of ReadReq misses
system.cache_small.ReadReq_misses::total         4174                       # number of ReadReq misses
system.cache_small.ReadReq_miss_latency::.cpu.inst    139919000                       # number of ReadReq miss cycles
system.cache_small.ReadReq_miss_latency::.cpu.data    117099000                       # number of ReadReq miss cycles
system.cache_small.ReadReq_miss_latency::total    257018000                       # number of ReadReq miss cycles
system.cache_small.ReadReq_accesses::.cpu.inst         9231                       # number of ReadReq accesses(hits+misses)
system.cache_small.ReadReq_accesses::.cpu.data         3708                       # number of ReadReq accesses(hits+misses)
system.cache_small.ReadReq_accesses::total        12939                       # number of ReadReq accesses(hits+misses)
system.cache_small.ReadReq_miss_rate::.cpu.inst     0.249377                       # miss rate for ReadReq accesses
system.cache_small.ReadReq_miss_rate::.cpu.data     0.504854                       # miss rate for ReadReq accesses
system.cache_small.ReadReq_miss_rate::total     0.322591                       # miss rate for ReadReq accesses
system.cache_small.ReadReq_avg_miss_latency::.cpu.inst 60781.494353                       # average ReadReq miss latency
system.cache_small.ReadReq_avg_miss_latency::.cpu.data 62552.884615                       # average ReadReq miss latency
system.cache_small.ReadReq_avg_miss_latency::total 61575.946334                       # average ReadReq miss latency
system.cache_small.ReadReq_mshr_misses::.cpu.inst         2302                       # number of ReadReq MSHR misses
system.cache_small.ReadReq_mshr_misses::.cpu.data         1872                       # number of ReadReq MSHR misses
system.cache_small.ReadReq_mshr_misses::total         4174                       # number of ReadReq MSHR misses
system.cache_small.ReadReq_mshr_miss_latency::.cpu.inst    135315000                       # number of ReadReq MSHR miss cycles
system.cache_small.ReadReq_mshr_miss_latency::.cpu.data    113355000                       # number of ReadReq MSHR miss cycles
system.cache_small.ReadReq_mshr_miss_latency::total    248670000                       # number of ReadReq MSHR miss cycles
system.cache_small.ReadReq_mshr_miss_rate::.cpu.inst     0.249377                       # mshr miss rate for ReadReq accesses
system.cache_small.ReadReq_mshr_miss_rate::.cpu.data     0.504854                       # mshr miss rate for ReadReq accesses
system.cache_small.ReadReq_mshr_miss_rate::total     0.322591                       # mshr miss rate for ReadReq accesses
system.cache_small.ReadReq_avg_mshr_miss_latency::.cpu.inst 58781.494353                       # average ReadReq mshr miss latency
system.cache_small.ReadReq_avg_mshr_miss_latency::.cpu.data 60552.884615                       # average ReadReq mshr miss latency
system.cache_small.ReadReq_avg_mshr_miss_latency::total 59575.946334                       # average ReadReq mshr miss latency
system.cache_small.WritebackDirty_hits::.writebacks         2729                       # number of WritebackDirty hits
system.cache_small.WritebackDirty_hits::total         2729                       # number of WritebackDirty hits
system.cache_small.WritebackDirty_accesses::.writebacks         2729                       # number of WritebackDirty accesses(hits+misses)
system.cache_small.WritebackDirty_accesses::total         2729                       # number of WritebackDirty accesses(hits+misses)
system.cache_small.power_state.pwrStateResidencyTicks::UNDEFINED   3984600000                       # Cumulative time (in ticks) in various power states
system.cache_small.tags.tagsinuse         2327.013017                       # Cycle average of tags in use
system.cache_small.tags.total_refs               2502                       # Total number of references to valid blocks.
system.cache_small.tags.sampled_refs              991                       # Sample count of references to valid blocks.
system.cache_small.tags.avg_refs             2.524723                       # Average number of references to valid blocks.
system.cache_small.tags.warmup_cycle            76000                       # Cycle when the warmup percentage was hit.
system.cache_small.tags.occ_blocks::.writebacks    23.901726                       # Average occupied blocks per requestor
system.cache_small.tags.occ_blocks::.cpu.inst  1237.822195                       # Average occupied blocks per requestor
system.cache_small.tags.occ_blocks::.cpu.data  1065.289096                       # Average occupied blocks per requestor
system.cache_small.tags.occ_percent::.writebacks     0.002918                       # Average percentage of cache occupancy
system.cache_small.tags.occ_percent::.cpu.inst     0.151101                       # Average percentage of cache occupancy
system.cache_small.tags.occ_percent::.cpu.data     0.130040                       # Average percentage of cache occupancy
system.cache_small.tags.occ_percent::total     0.284059                       # Average percentage of cache occupancy
system.cache_small.tags.occ_task_id_blocks::1024         3243                       # Occupied blocks per task id
system.cache_small.tags.age_task_id_blocks_1024::0            2                       # Occupied blocks per task id
system.cache_small.tags.age_task_id_blocks_1024::1           15                       # Occupied blocks per task id
system.cache_small.tags.age_task_id_blocks_1024::2          407                       # Occupied blocks per task id
system.cache_small.tags.age_task_id_blocks_1024::3         2819                       # Occupied blocks per task id
system.cache_small.tags.occ_task_id_percent::1024     0.395874                       # Percentage of cache occupancy per task id
system.cache_small.tags.tag_accesses            19902                       # Number of tag accesses
system.cache_small.tags.data_accesses           19902                       # Number of data accesses
system.cache_small.tags.power_state.pwrStateResidencyTicks::UNDEFINED   3984600000                       # Cumulative time (in ticks) in various power states
system.icache.demand_hits::.cpu.inst          1295667                       # number of demand (read+write) hits
system.icache.demand_hits::total              1295667                       # number of demand (read+write) hits
system.icache.overall_hits::.cpu.inst         1295667                       # number of overall hits
system.icache.overall_hits::total             1295667                       # number of overall hits
system.icache.demand_misses::.cpu.inst          13976                       # number of demand (read+write) misses
system.icache.demand_misses::total              13976                       # number of demand (read+write) misses
system.icache.overall_misses::.cpu.inst         13976                       # number of overall misses
system.icache.overall_misses::total             13976                       # number of overall misses
system.icache.demand_miss_latency::.cpu.inst    382205000                       # number of demand (read+write) miss cycles
system.icache.demand_miss_latency::total    382205000                       # number of demand (read+write) miss cycles
system.icache.overall_miss_latency::.cpu.inst    382205000                       # number of overall miss cycles
system.icache.overall_miss_latency::total    382205000                       # number of overall miss cycles
system.icache.demand_accesses::.cpu.inst      1309643                       # number of demand (read+write) accesses
system.icache.demand_accesses::total          1309643                       # number of demand (read+write) accesses
system.icache.overall_accesses::.cpu.inst      1309643                       # number of overall (read+write) accesses
system.icache.overall_accesses::total         1309643                       # number of overall (read+write) accesses
system.icache.demand_miss_rate::.cpu.inst     0.010672                       # miss rate for demand accesses
system.icache.demand_miss_rate::total        0.010672                       # miss rate for demand accesses
system.icache.overall_miss_rate::.cpu.inst     0.010672                       # miss rate for overall accesses
system.icache.overall_miss_rate::total       0.010672                       # miss rate for overall accesses
system.icache.demand_avg_miss_latency::.cpu.inst 27347.238122                       # average overall miss latency
system.icache.demand_avg_miss_latency::total 27347.238122                       # average overall miss latency
system.icache.overall_avg_miss_latency::.cpu.inst 27347.238122                       # average overall miss latency
system.icache.overall_avg_miss_latency::total 27347.238122                       # average overall miss latency
system.icache.blocked_cycles::no_mshrs              0                       # number of cycles access was blocked
system.icache.blocked_cycles::no_targets            0                       # number of cycles access was blocked
system.icache.blocked::no_mshrs                     0                       # number of cycles access was blocked
system.icache.blocked::no_targets                   0                       # number of cycles access was blocked
system.icache.avg_blocked_cycles::no_mshrs          nan                       # average number of cycles each access was blocked
system.icache.avg_blocked_cycles::no_targets          nan                       # average number of cycles each access was blocked
system.icache.demand_mshr_misses::.cpu.inst        13976                       # number of demand (read+write) MSHR misses
system.icache.demand_mshr_misses::total         13976                       # number of demand (read+write) MSHR misses
system.icache.overall_mshr_misses::.cpu.inst        13976                       # number of overall MSHR misses
system.icache.overall_mshr_misses::total        13976                       # number of overall MSHR misses
system.icache.demand_mshr_miss_latency::.cpu.inst    354253000                       # number of demand (read+write) MSHR miss cycles
system.icache.demand_mshr_miss_latency::total    354253000                       # number of demand (read+write) MSHR miss cycles
system.icache.overall_mshr_miss_latency::.cpu.inst    354253000                       # number of overall MSHR miss cycles
system.icache.overall_mshr_miss_latency::total    354253000                       # number of overall MSHR miss cycles
system.icache.demand_mshr_miss_rate::.cpu.inst     0.010672                       # mshr miss rate for demand accesses
system.icache.demand_mshr_miss_rate::total     0.010672                       # mshr miss rate for demand accesses
system.icache.overall_mshr_miss_rate::.cpu.inst     0.010672                       # mshr miss rate for overall accesses
system.icache.overall_mshr_miss_rate::total     0.010672                       # mshr miss rate for overall accesses
system.icache.demand_avg_mshr_miss_latency::.cpu.inst 25347.238122                       # average overall mshr miss latency
system.icache.demand_avg_mshr_miss_latency::total 25347.238122                       # average overall mshr miss latency
system.icache.overall_avg_mshr_miss_latency::.cpu.inst 25347.238122                       # average overall mshr miss latency
system.icache.overall_avg_mshr_miss_latency::total 25347.238122                       # average overall mshr miss latency
system.icache.replacements                      13720                       # number of replacements
system.icache.ReadReq_hits::.cpu.inst         1295667                       # number of ReadReq hits
system.icache.ReadReq_hits::total             1295667                       # number of ReadReq hits
system.icache.ReadReq_misses::.cpu.inst         13976                       # number of ReadReq misses
system.icache.ReadReq_misses::total             13976                       # number of ReadReq misses
system.icache.ReadReq_miss_latency::.cpu.inst    382205000                       # number of ReadReq miss cycles
system.icache.ReadReq_miss_latency::total    382205000                       # number of ReadReq miss cycles
system.icache.ReadReq_accesses::.cpu.inst      1309643                       # number of ReadReq accesses(hits+misses)
system.icache.ReadReq_accesses::total         1309643                       # number of ReadReq accesses(hits+misses)
system.icache.ReadReq_miss_rate::.cpu.inst     0.010672                       # miss rate for ReadReq accesses
system.icache.ReadReq_miss_rate::total       0.010672                       # miss rate for ReadReq accesses
system.icache.ReadReq_avg_miss_latency::.cpu.inst 27347.238122                       # average ReadReq miss latency
system.icache.ReadReq_avg_miss_latency::total 27347.238122                       # average ReadReq miss latency
system.icache.ReadReq_mshr_misses::.cpu.inst        13976                       # number of ReadReq MSHR misses
system.icache.ReadReq_mshr_misses::total        13976                       # number of ReadReq MSHR misses
system.icache.ReadReq_mshr_miss_latency::.cpu.inst    354253000                       # number of ReadReq MSHR miss cycles
system.icache.ReadReq_mshr_miss_latency::total    354253000                       # number of ReadReq MSHR miss cycles
system.icache.ReadReq_mshr_miss_rate::.cpu.inst     0.010672                       # mshr miss rate for ReadReq accesses
system.icache.ReadReq_mshr_miss_rate::total     0.010672                       # mshr miss rate for ReadReq accesses
system.icache.ReadReq_avg_mshr_miss_latency::.cpu.inst 25347.238122                       # average ReadReq mshr miss latency
system.icache.ReadReq_avg_mshr_miss_latency::total 25347.238122                       # average ReadReq mshr miss latency
system.icache.power_state.pwrStateResidencyTicks::UNDEFINED   3984600000                       # Cumulative time (in ticks) in various power states
system.icache.tags.tagsinuse               251.815494                       # Cycle average of tags in use
system.icache.tags.total_refs                 1213720                       # Total number of references to valid blocks.
system.icache.tags.sampled_refs                 13720                       # Sample count of references to valid blocks.
system.icache.tags.avg_refs                 88.463557                       # Average number of references to valid blocks.
system.icache.tags.warmup_cycle                 82000                       # Cycle when the warmup percentage was hit.
system.icache.tags.occ_blocks::.cpu.inst   251.815494                       # Average occupied blocks per requestor
system.icache.tags.occ_percent::.cpu.inst     0.983654                       # Average percentage of cache occupancy
system.icache.tags.occ_percent::total        0.983654                       # Average percentage of cache occupancy
system.icache.tags.occ_task_id_blocks::1024          256                       # Occupied blocks per task id
system.icache.tags.age_task_id_blocks_1024::0           21                       # Occupied blocks per task id
system.icache.tags.age_task_id_blocks_1024::1          131                       # Occupied blocks per task id
system.icache.tags.age_task_id_blocks_1024::2           47                       # Occupied blocks per task id
system.icache.tags.age_task_id_blocks_1024::3           57                       # Occupied blocks per task id
system.icache.tags.occ_task_id_percent::1024            1                       # Percentage of cache occupancy per task id
system.icache.tags.tag_accesses               1323619                       # Number of tag accesses
system.icache.tags.data_accesses              1323619                       # Number of data accesses
system.icache.tags.power_state.pwrStateResidencyTicks::UNDEFINED   3984600000                       # Cumulative time (in ticks) in various power states
system.membus.trans_dist::ReadReq                4174                       # Transaction distribution
system.membus.trans_dist::ReadResp               4174                       # Transaction distribution
system.membus.trans_dist::WritebackDirty          122                       # Transaction distribution
system.membus.pkt_count_system.cache_small.mem_side::system.mem_ctrl.port         8470                       # Packet count per connected master and slave (bytes)
system.membus.pkt_count_system.cache_small.mem_side::total         8470                       # Packet count per connected master and slave (bytes)
system.membus.pkt_count::total                   8470                       # Packet count per connected master and slave (bytes)
system.membus.pkt_size_system.cache_small.mem_side::system.mem_ctrl.port       274944                       # Cumulative packet size per connected master and slave (bytes)
system.membus.pkt_size_system.cache_small.mem_side::total       274944                       # Cumulative packet size per connected master and slave (bytes)
system.membus.pkt_size::total                  274944                       # Cumulative packet size per connected master and slave (bytes)
system.membus.reqLayer2.occupancy             4784000                       # Layer occupancy (ticks)
system.membus.reqLayer2.utilization               0.1                       # Layer utilization (%)
system.membus.respLayer1.occupancy           22324000                       # Layer occupancy (ticks)
system.membus.respLayer1.utilization              0.6                       # Layer utilization (%)
system.membus.power_state.pwrStateResidencyTicks::UNDEFINED   3984600000                       # Cumulative time (in ticks) in various power states
system.mem_ctrl.bytes_read::.cpu.inst          147328                       # Number of bytes read from this memory
system.mem_ctrl.bytes_read::.cpu.data          119808                       # Number of bytes read from this memory
system.mem_ctrl.bytes_read::total              267136                       # Number of bytes read from this memory
system.mem_ctrl.bytes_inst_read::.cpu.inst       147328                       # Number of instructions bytes read from this memory
system.mem_ctrl.bytes_inst_read::total         147328                       # Number of instructions bytes read from this memory
system.mem_ctrl.bytes_written::.writebacks         7808                       # Number of bytes written to this memory
system.mem_ctrl.bytes_written::total             7808                       # Number of bytes written to this memory
system.mem_ctrl.num_reads::.cpu.inst             2302                       # Number of read requests responded to by this memory
system.mem_ctrl.num_reads::.cpu.data             1872                       # Number of read requests responded to by this memory
system.mem_ctrl.num_reads::total                 4174                       # Number of read requests responded to by this memory
system.mem_ctrl.num_writes::.writebacks           122                       # Number of write requests responded to by this memory
system.mem_ctrl.num_writes::total                 122                       # Number of write requests responded to by this memory
system.mem_ctrl.bw_read::.cpu.inst           36974351                       # Total read bandwidth from this memory (bytes/s)
system.mem_ctrl.bw_read::.cpu.data           30067761                       # Total read bandwidth from this memory (bytes/s)
system.mem_ctrl.bw_read::total               67042112                       # Total read bandwidth from this memory (bytes/s)
system.mem_ctrl.bw_inst_read::.cpu.inst      36974351                       # Instruction read bandwidth from this memory (bytes/s)
system.mem_ctrl.bw_inst_read::total          36974351                       # Instruction read bandwidth from this memory (bytes/s)
system.mem_ctrl.bw_write::.writebacks         1959544                       # Write bandwidth from this memory (bytes/s)
system.mem_ctrl.bw_write::total               1959544                       # Write bandwidth from this memory (bytes/s)
system.mem_ctrl.bw_total::.writebacks         1959544                       # Total bandwidth to/from this memory (bytes/s)
system.mem_ctrl.bw_total::.cpu.inst          36974351                       # Total bandwidth to/from this memory (bytes/s)
system.mem_ctrl.bw_total::.cpu.data          30067761                       # Total bandwidth to/from this memory (bytes/s)
system.mem_ctrl.bw_total::total              69001656                       # Total bandwidth to/from this memory (bytes/s)
system.mem_ctrl.avgPriority_.writebacks::samples       121.00                       # Average QoS priority value for accepted requests
system.mem_ctrl.avgPriority_.cpu.inst::samples      2302.00                       # Average QoS priority value for accepted requests
system.mem_ctrl.avgPriority_.cpu.data::samples      1868.00                       # Average QoS priority value for accepted requests
system.mem_ctrl.priorityMinLatency       0.000000018750                       # per QoS priority minimum request to response latency (s)
system.mem_ctrl.priorityMaxLatency       0.003201458500                       # per QoS priority maximum request to response latency (s)
system.mem_ctrl.numReadWriteTurnArounds             6                       # Number of turnarounds from READ to WRITE
system.mem_ctrl.numWriteReadTurnArounds             6                       # Number of turnarounds from WRITE to READ
system.mem_ctrl.numStayReadState                 9479                       # Number of times bus staying in READ state
system.mem_ctrl.numStayWriteState                 100                       # Number of times bus staying in WRITE state
system.mem_ctrl.readReqs                         4174                       # Number of read requests accepted
system.mem_ctrl.writeReqs                         122                       # Number of write requests accepted
system.mem_ctrl.readBursts                       4174                       # Number of DRAM read bursts, including those serviced by the write queue
system.mem_ctrl.writeBursts                       122                       # Number of DRAM write bursts, including those merged in the write queue
system.mem_ctrl.servicedByWrQ                       4                       # Number of DRAM read bursts serviced by the write queue
system.mem_ctrl.mergedWrBursts                      1                       # Number of DRAM write bursts merged with an existing one
system.mem_ctrl.neitherReadNorWriteReqs             0                       # Number of requests that are neither read nor write
system.mem_ctrl.perBankRdBursts::0                390                       # Per bank write bursts
system.mem_ctrl.perBankRdBursts::1                226                       # Per bank write bursts
system.mem_ctrl.perBankRdBursts::2                607                       # Per bank write bursts
system.mem_ctrl.perBankRdBursts::3                294                       # Per bank write bursts
system.mem_ctrl.perBankRdBursts::4                330                       # Per bank write bursts
system.mem_ctrl.perBankRdBursts::5                369                       # Per bank write bursts
system.mem_ctrl.perBankRdBursts::6                212                       # Per bank write bursts
system.mem_ctrl.perBankRdBursts::7                226                       # Per bank write bursts
system.mem_ctrl.perBankRdBursts::8                196                       # Per bank write bursts
system.mem_ctrl.perBankRdBursts::9                247                       # Per bank write bursts
system.mem_ctrl.perBankRdBursts::10               285                       # Per bank write bursts
system.mem_ctrl.perBankRdBursts::11               369                       # Per bank write bursts
system.mem_ctrl.perBankRdBursts::12               173                       # Per bank write bursts
system.mem_ctrl.perBankRdBursts::13                15                       # Per bank write bursts
system.mem_ctrl.perBankRdBursts::14                72                       # Per bank write bursts
system.mem_ctrl.perBankRdBursts::15               159                       # Per bank write bursts
system.mem_ctrl.perBankWrBursts::0                 11                       # Per bank write bursts
system.mem_ctrl.perBankWrBursts::1                  3                       # Per bank write bursts
system.mem_ctrl.perBankWrBursts::2                  9                       # Per bank write bursts
system.mem_ctrl.perBankWrBursts::3                  2                       # Per bank write bursts
system.mem_ctrl.perBankWrBursts::4                 45                       # Per bank write bursts
system.mem_ctrl.perBankWrBursts::5                  2                       # Per bank write bursts
system.mem_ctrl.perBankWrBursts::6                  0                       # Per bank write bursts
system.mem_ctrl.perBankWrBursts::7                  7                       # Per bank write bursts
system.mem_ctrl.perBankWrBursts::8                  0                       # Per bank write bursts
system.mem_ctrl.perBankWrBursts::9                  0                       # Per bank write bursts
system.mem_ctrl.perBankWrBursts::10                 8                       # Per bank write bursts
system.mem_ctrl.perBankWrBursts::11                10                       # Per bank write bursts
system.mem_ctrl.perBankWrBursts::12                 8                       # Per bank write bursts
system.mem_ctrl.perBankWrBursts::13                 0                       # Per bank write bursts
system.mem_ctrl.perBankWrBursts::14                 0                       # Per bank write bursts
system.mem_ctrl.perBankWrBursts::15                 1                       # Per bank write bursts
system.mem_ctrl.avgRdQLen                        1.00                       # Average read queue length when enqueuing
system.mem_ctrl.avgWrQLen                       19.75                       # Average write queue length when enqueuing
system.mem_ctrl.totQLat                      39669750                       # Total ticks spent queuing
system.mem_ctrl.totBusLat                    20850000                       # Total ticks spent in databus transfers
system.mem_ctrl.totMemAccLat                117857250                       # Total ticks spent from burst creation until serviced by the DRAM
system.mem_ctrl.avgQLat                       9513.13                       # Average queueing delay per DRAM burst
system.mem_ctrl.avgBusLat                     5000.00                       # Average bus latency per DRAM burst
system.mem_ctrl.avgMemAccLat                 28263.13                       # Average memory access latency per DRAM burst
system.mem_ctrl.numRdRetry                          0                       # Number of times read queue was full causing retry
system.mem_ctrl.numWrRetry                          0                       # Number of times write queue was full causing retry
system.mem_ctrl.readRowHits                      2723                       # Number of row buffer hits during reads
system.mem_ctrl.writeRowHits                       87                       # Number of row buffer hits during writes
system.mem_ctrl.readRowHitRate                  65.30                       # Row buffer hit rate for reads
system.mem_ctrl.writeRowHitRate                 71.90                       # Row buffer hit rate for writes
system.mem_ctrl.readPktSize::0                      0                       # Read request sizes (log2)
system.mem_ctrl.readPktSize::1                      0                       # Read request sizes (log2)
system.mem_ctrl.readPktSize::2                      0                       # Read request sizes (log2)
system.mem_ctrl.readPktSize::3                      0                       # Read request sizes (log2)
system.mem_ctrl.readPktSize::4                      0                       # Read request sizes (log2)
system.mem_ctrl.readPktSize::5                      0                       # Read request sizes (log2)
system.mem_ctrl.readPktSize::6                   4174                       # Read request sizes (log2)
system.mem_ctrl.writePktSize::0                     0                       # Write request sizes (log2)
system.mem_ctrl.writePktSize::1                     0                       # Write request sizes (log2)
system.mem_ctrl.writePktSize::2                     0                       # Write request sizes (log2)
system.mem_ctrl.writePktSize::3                     0                       # Write request sizes (log2)
system.mem_ctrl.writePktSize::4                     0                       # Write request sizes (log2)
system.mem_ctrl.writePktSize::5                     0                       # Write request sizes (log2)
system.mem_ctrl.writePktSize::6                   122                       # Write request sizes (log2)
system.mem_ctrl.rdQLenPdf::0                     4162                       # What read queue length does an incoming req see
system.mem_ctrl.rdQLenPdf::1                        8                       # What read queue length does an incoming req see
system.mem_ctrl.rdQLenPdf::2                        0                       # What read queue length does an incoming req see
system.mem_ctrl.rdQLenPdf::3                        0                       # What read queue length does an incoming req see
system.mem_ctrl.rdQLenPdf::4                        0                       # What read queue length does an incoming req see
system.mem_ctrl.rdQLenPdf::5                        0                       # What read queue length does an incoming req see
system.mem_ctrl.rdQLenPdf::6                        0                       # What read queue length does an incoming req see
system.mem_ctrl.rdQLenPdf::7                        0                       # What read queue length does an incoming req see
system.mem_ctrl.rdQLenPdf::8                        0                       # What read queue length does an incoming req see
system.mem_ctrl.rdQLenPdf::9                        0                       # What read queue length does an incoming req see
system.mem_ctrl.rdQLenPdf::10                       0                       # What read queue length does an incoming req see
system.mem_ctrl.rdQLenPdf::11                       0                       # What read queue length does an incoming req see
system.mem_ctrl.rdQLenPdf::12                       0                       # What read queue length does an incoming req see
system.mem_ctrl.rdQLenPdf::13                       0                       # What read queue length does an incoming req see
system.mem_ctrl.rdQLenPdf::14                       0                       # What read queue length does an incoming req see
system.mem_ctrl.rdQLenPdf::15                       0                       # What read queue length does an incoming req see
system.mem_ctrl.rdQLenPdf::16                       0                       # What read queue length does an incoming req see
system.mem_ctrl.rdQLenPdf::17                       0                       # What read queue length does an incoming req see
system.mem_ctrl.rdQLenPdf::18                       0                       # What read queue length does an incoming req see
system.mem_ctrl.rdQLenPdf::19                       0                       # What read queue length does an incoming req see
system.mem_ctrl.rdQLenPdf::20                       0                       # What read queue length does an incoming req see
system.mem_ctrl.rdQLenPdf::21                       0                       # What read queue length does an incoming req see
system.mem_ctrl.rdQLenPdf::22                       0                       # What read queue length does an incoming req see
system.mem_ctrl.rdQLenPdf::23                       0                       # What read queue length does an incoming req see
system.mem_ctrl.rdQLenPdf::24                       0                       # What read queue length does an incoming req see
system.mem_ctrl.rdQLenPdf::25                       0                       # What read queue length does an incoming req see
system.mem_ctrl.rdQLenPdf::26                       0                       # What read queue length does an incoming req see
system.mem_ctrl.rdQLenPdf::27                       0                       # What read queue length does an incoming req see
system.mem_ctrl.rdQLenPdf::28                       0                       # What read queue length does an incoming req see
system.mem_ctrl.rdQLenPdf::29                       0                       # What read queue length does an incoming req see
system.mem_ctrl.rdQLenPdf::30                       0                       # What read queue length does an incoming req see
system.mem_ctrl.rdQLenPdf::31                       0                       # What read queue length does an incoming req see
system.mem_ctrl.wrQLenPdf::0                        1                       # What write queue length does an incoming req see
system.mem_ctrl.wrQLenPdf::1                        1                       # What write queue length does an incoming req see
system.mem_ctrl.wrQLenPdf::2                        1                       # What write queue length does an incoming req see
system.mem_ctrl.wrQLenPdf::3                        1                       # What write queue length does an incoming req see
system.mem_ctrl.wrQLenPdf::4                        1                       # What write queue length does an incoming req see
system.mem_ctrl.wrQLenPdf::5                        1                       # What write queue length does an incoming req see
system.mem_ctrl.wrQLenPdf::6                        1                       # What write queue length does an incoming req see
system.mem_ctrl.wrQLenPdf::7                        1                       # What write queue length does an incoming req see
system.mem_ctrl.wrQLenPdf::8                        1                       # What write queue length does an incoming req see
system.mem_ctrl.wrQLenPdf::9                        1                       # What write queue length does an incoming req see
system.mem_ctrl.wrQLenPdf::10                       1                       # What write queue length does an incoming req see
system.mem_ctrl.wrQLenPdf::11                       1                       # What write queue length does an incoming req see
system.mem_ctrl.wrQLenPdf::12                       1                       # What write queue length does an incoming req see
system.mem_ctrl.wrQLenPdf::13                       1                       # What write queue length does an incoming req see
system.mem_ctrl.wrQLenPdf::14                       1                       # What write queue length does an incoming req see
system.mem_ctrl.wrQLenPdf::15                       5                       # What write queue length does an incoming req see
system.mem_ctrl.wrQLenPdf::16                       5                       # What write queue length does an incoming req see
system.mem_ctrl.wrQLenPdf::17                       6                       # What write queue length does an incoming req see
system.mem_ctrl.wrQLenPdf::18                       6                       # What write queue length does an incoming req see
system.mem_ctrl.wrQLenPdf::19                       6                       # What write queue length does an incoming req see
system.mem_ctrl.wrQLenPdf::20                       6                       # What write queue length does an incoming req see
system.mem_ctrl.wrQLenPdf::21                       6                       # What write queue length does an incoming req see
system.mem_ctrl.wrQLenPdf::22                       6                       # What write queue length does an incoming req see
system.mem_ctrl.wrQLenPdf::23                       6                       # What write queue length does an incoming req see
system.mem_ctrl.wrQLenPdf::24                       6                       # What write queue length does an incoming req see
system.mem_ctrl.wrQLenPdf::25                       6                       # What write queue length does an incoming req see
system.mem_ctrl.wrQLenPdf::26                       6                       # What write queue length does an incoming req see
system.mem_ctrl.wrQLenPdf::27                       6                       # What write queue length does an incoming req see
system.mem_ctrl.wrQLenPdf::28                       6                       # What write queue length does an incoming req see
system.mem_ctrl.wrQLenPdf::29                       6                       # What write queue length does an incoming req see
system.mem_ctrl.wrQLenPdf::30                       6                       # What write queue length does an incoming req see
system.mem_ctrl.wrQLenPdf::31                       6                       # What write queue length does an incoming req see
system.mem_ctrl.wrQLenPdf::32                       6                       # What write queue length does an incoming req see
system.mem_ctrl.wrQLenPdf::33                       0                       # What write queue length does an incoming req see
system.mem_ctrl.wrQLenPdf::34                       0                       # What write queue length does an incoming req see
system.mem_ctrl.wrQLenPdf::35                       0                       # What write queue length does an incoming req see
system.mem_ctrl.wrQLenPdf::36                       0                       # What write queue length does an incoming req see
system.mem_ctrl.wrQLenPdf::37                       0                       # What write queue length does an incoming req see
system.mem_ctrl.wrQLenPdf::38                       0                       # What write queue length does an incoming req see
system.mem_ctrl.wrQLenPdf::39                       0                       # What write queue length does an incoming req see
system.mem_ctrl.wrQLenPdf::40                       0                       # What write queue length does an incoming req see
system.mem_ctrl.wrQLenPdf::41                       0                       # What write queue length does an incoming req see
system.mem_ctrl.wrQLenPdf::42                       0                       # What write queue length does an incoming req see
system.mem_ctrl.wrQLenPdf::43                       0                       # What write queue length does an incoming req see
system.mem_ctrl.wrQLenPdf::44                       0                       # What write queue length does an incoming req see
system.mem_ctrl.wrQLenPdf::45                       0                       # What write queue length does an incoming req see
system.mem_ctrl.wrQLenPdf::46                       0                       # What write queue length does an incoming req see
system.mem_ctrl.wrQLenPdf::47                       0                       # What write queue length does an incoming req see
system.mem_ctrl.wrQLenPdf::48                       0                       # What write queue length does an incoming req see
system.mem_ctrl.wrQLenPdf::49                       0                       # What write queue length does an incoming req see
system.mem_ctrl.wrQLenPdf::50                       0                       # What write queue length does an incoming req see
system.mem_ctrl.wrQLenPdf::51                       0                       # What write queue length does an incoming req see
system.mem_ctrl.wrQLenPdf::52                       0                       # What write queue length does an incoming req see
system.mem_ctrl.wrQLenPdf::53                       0                       # What write queue length does an incoming req see
system.mem_ctrl.wrQLenPdf::54                       0                       # What write queue length does an incoming req see
system.mem_ctrl.wrQLenPdf::55                       0                       # What write queue length does an incoming req see
system.mem_ctrl.wrQLenPdf::56                       0                       # What write queue length does an incoming req see
system.mem_ctrl.wrQLenPdf::57                       0                       # What write queue length does an incoming req see
system.mem_ctrl.wrQLenPdf::58                       0                       # What write queue length does an incoming req see
system.mem_ctrl.wrQLenPdf::59                       0                       # What write queue length does an incoming req see
system.mem_ctrl.wrQLenPdf::60                       0                       # What write queue length does an incoming req see
system.mem_ctrl.wrQLenPdf::61                       0                       # What write queue length does an incoming req see
system.mem_ctrl.wrQLenPdf::62                       0                       # What write queue length does an incoming req see
system.mem_ctrl.wrQLenPdf::63                       0                       # What write queue length does an incoming req see
system.mem_ctrl.bytesPerActivate::samples         1464                       # Bytes accessed per row activation
system.mem_ctrl.bytesPerActivate::mean     186.841530                       # Bytes accessed per row activation
system.mem_ctrl.bytesPerActivate::gmean    137.437107                       # Bytes accessed per row activation
system.mem_ctrl.bytesPerActivate::stdev    177.066958                       # Bytes accessed per row activation
system.mem_ctrl.bytesPerActivate::0-127           558     38.11%     38.11% # Bytes accessed per row activation
system.mem_ctrl.bytesPerActivate::128-255          508     34.70%     72.81% # Bytes accessed per row activation
system.mem_ctrl.bytesPerActivate::256-383          238     16.26%     89.07% # Bytes accessed per row activation
system.mem_ctrl.bytesPerActivate::384-511           67      4.58%     93.65% # Bytes accessed per row activation
system.mem_ctrl.bytesPerActivate::512-639           34      2.32%     95.97% # Bytes accessed per row activation
system.mem_ctrl.bytesPerActivate::640-767           22      1.50%     97.47% # Bytes accessed per row activation
system.mem_ctrl.bytesPerActivate::768-895           13      0.89%     98.36% # Bytes accessed per row activation
system.mem_ctrl.bytesPerActivate::896-1023            4      0.27%     98.63% # Bytes accessed per row activation
system.mem_ctrl.bytesPerActivate::1024-1151           20      1.37%    100.00% # Bytes accessed per row activation
system.mem_ctrl.bytesPerActivate::total          1464                       # Bytes accessed per row activation
system.mem_ctrl.rdPerTurnAround::samples            6                       # Reads before turning the bus around for writes
system.mem_ctrl.rdPerTurnAround::mean      694.666667                       # Reads before turning the bus around for writes
system.mem_ctrl.rdPerTurnAround::gmean     211.636388                       # Reads before turning the bus around for writes
system.mem_ctrl.rdPerTurnAround::stdev    1296.797697                       # Reads before turning the bus around for writes
system.mem_ctrl.rdPerTurnAround::0-127              2     33.33%     33.33% # Reads before turning the bus around for writes
system.mem_ctrl.rdPerTurnAround::128-255            2     33.33%     66.67% # Reads before turning the bus around for writes
system.mem_ctrl.rdPerTurnAround::384-511            1     16.67%     83.33% # Reads before turning the bus around for writes
system.mem_ctrl.rdPerTurnAround::3328-3455            1     16.67%    100.00% # Reads before turning the bus around for writes
system.mem_ctrl.rdPerTurnAround::total              6                       # Reads before turning the bus around for writes
system.mem_ctrl.wrPerTurnAround::samples            6                       # Writes before turning the bus around for reads
system.mem_ctrl.wrPerTurnAround::mean       17.666667                       # Writes before turning the bus around for reads
system.mem_ctrl.wrPerTurnAround::gmean      17.650097                       # Writes before turning the bus around for reads
system.mem_ctrl.wrPerTurnAround::stdev       0.816497                       # Writes before turning the bus around for reads
system.mem_ctrl.wrPerTurnAround::16                 1     16.67%     16.67% # Writes before turning the bus around for reads
system.mem_ctrl.wrPerTurnAround::18                 5     83.33%    100.00% # Writes before turning the bus around for reads
system.mem_ctrl.wrPerTurnAround::total              6                       # Writes before turning the bus around for reads
system.mem_ctrl.bytesReadDRAM                  266880                       # Total number of bytes read from DRAM
system.mem_ctrl.bytesReadWrQ                      256                       # Total number of bytes read from write queue
system.mem_ctrl.bytesWritten                     6784                       # Total number of bytes written to DRAM
system.mem_ctrl.bytesReadSys                   267136                       # Total read bytes from the system interface side
system.mem_ctrl.bytesWrittenSys                  7808                       # Total written bytes from the system interface side
system.mem_ctrl.avgRdBW                         66.98                       # Average DRAM read bandwidth in MiByte/s
system.mem_ctrl.avgWrBW                          1.70                       # Average achieved write bandwidth in MiByte/s
system.mem_ctrl.avgRdBWSys                      67.04                       # Average system read bandwidth in MiByte/s
system.mem_ctrl.avgWrBWSys                       1.96                       # Average system write bandwidth in MiByte/s
system.mem_ctrl.peakBW                       12800.00                       # Theoretical peak bandwidth in MiByte/s
system.mem_ctrl.busUtil                          0.54                       # Data bus utilization in percentage
system.mem_ctrl.busUtilRead                      0.52                       # Data bus utilization in percentage for reads
system.mem_ctrl.busUtilWrite                     0.01                       # Data bus utilization in percentage for writes
system.mem_ctrl.totGap                     3981448000                       # Total gap between requests
system.mem_ctrl.avgGap                      926780.26                       # Average gap between requests
system.mem_ctrl.masterReadBytes::.cpu.inst       147328                       # Per-master bytes read from memory
system.mem_ctrl.masterReadBytes::.cpu.data       119552                       # Per-master bytes read from memory
system.mem_ctrl.masterWriteBytes::.writebacks         6784                       # Per-master bytes write to memory
system.mem_ctrl.masterReadRate::.cpu.inst 36974351.252321444452                       # Per-master bytes read from memory rate (Bytes/sec)
system.mem_ctrl.masterReadRate::.cpu.data 30003513.527079258114                       # Per-master bytes read from memory rate (Bytes/sec)
system.mem_ctrl.masterWriteRate::.writebacks 1702554.836119058542                       # Per-master bytes write to memory rate (Bytes/sec)
system.mem_ctrl.masterReadAccesses::.cpu.inst         2302                       # Per-master read serviced memory accesses
system.mem_ctrl.masterReadAccesses::.cpu.data         1872                       # Per-master read serviced memory accesses
system.mem_ctrl.masterWriteAccesses::.writebacks          122                       # Per-master write serviced memory accesses
system.mem_ctrl.masterReadTotalLat::.cpu.inst     63157250                       # Per-master read total memory access latency
system.mem_ctrl.masterReadTotalLat::.cpu.data     54700000                       # Per-master read total memory access latency
system.mem_ctrl.masterWriteTotalLat::.writebacks  66371647500                       # Per-master write total memory access latency
system.mem_ctrl.masterReadAvgLat::.cpu.inst     27435.82                       # Per-master read average memory access latency
system.mem_ctrl.masterReadAvgLat::.cpu.data     29220.09                       # Per-master read average memory access latency
system.mem_ctrl.masterWriteAvgLat::.writebacks 544029897.54                       # Per-master write average memory access latency
system.mem_ctrl.pageHitRate                     65.49                       # Row buffer hit rate, read and write combined
system.mem_ctrl.rank1.actEnergy               3919860                       # Energy for activate commands per rank (pJ)
system.mem_ctrl.rank1.preEnergy               2083455                       # Energy for precharge commands per rank (pJ)
system.mem_ctrl.rank1.readEnergy             10824240                       # Energy for read commands per rank (pJ)
system.mem_ctrl.rank1.writeEnergy              140940                       # Energy for write commands per rank (pJ)
system.mem_ctrl.rank1.refreshEnergy      314081040.000000                       # Energy for refresh commands per rank (pJ)
system.mem_ctrl.rank1.actBackEnergy         757940970                       # Energy for active background per rank (pJ)
system.mem_ctrl.rank1.preBackEnergy         891820320                       # Energy for precharge background per rank (pJ)
system.mem_ctrl.rank1.actPowerDownEnergy            0                       # Energy for active power-down per rank (pJ)
system.mem_ctrl.rank1.prePowerDownEnergy            0                       # Energy for precharge power-down per rank (pJ)
system.mem_ctrl.rank1.selfRefreshEnergy             0                       # Energy for self refresh per rank (pJ)
system.mem_ctrl.rank1.totalEnergy          1980810825                       # Total energy per rank (pJ)
system.mem_ctrl.rank1.averagePower         497.116605                       # Core power per rank (mW)
system.mem_ctrl.rank1.totalIdleTime                 0                       # Total Idle time Per DRAM Rank
system.mem_ctrl.rank1.memoryStateTime::IDLE   2310947000                       # Time in different power states
system.mem_ctrl.rank1.memoryStateTime::REF    132860000                       # Time in different power states
system.mem_ctrl.rank1.memoryStateTime::SREF            0                       # Time in different power states
system.mem_ctrl.rank1.memoryStateTime::PRE_PDN            0                       # Time in different power states
system.mem_ctrl.rank1.memoryStateTime::ACT   1540793000                       # Time in different power states
system.mem_ctrl.rank1.memoryStateTime::ACT_PDN            0                       # Time in different power states
system.mem_ctrl.rank0.actEnergy               6547380                       # Energy for activate commands per rank (pJ)
system.mem_ctrl.rank0.preEnergy               3472425                       # Energy for precharge commands per rank (pJ)
system.mem_ctrl.rank0.readEnergy             18949560                       # Energy for read commands per rank (pJ)
system.mem_ctrl.rank0.writeEnergy              412380                       # Energy for write commands per rank (pJ)
system.mem_ctrl.rank0.refreshEnergy      314081040.000000                       # Energy for refresh commands per rank (pJ)
system.mem_ctrl.rank0.actBackEnergy        1009966470                       # Energy for active background per rank (pJ)
system.mem_ctrl.rank0.preBackEnergy         679588320                       # Energy for precharge background per rank (pJ)
system.mem_ctrl.rank0.actPowerDownEnergy            0                       # Energy for active power-down per rank (pJ)
system.mem_ctrl.rank0.prePowerDownEnergy            0                       # Energy for precharge power-down per rank (pJ)
system.mem_ctrl.rank0.selfRefreshEnergy             0                       # Energy for self refresh per rank (pJ)
system.mem_ctrl.rank0.totalEnergy          2033017575                       # Total energy per rank (pJ)
system.mem_ctrl.rank0.averagePower         510.218736                       # Core power per rank (mW)
system.mem_ctrl.rank0.totalIdleTime                 0                       # Total Idle time Per DRAM Rank
system.mem_ctrl.rank0.memoryStateTime::IDLE   1757180000                       # Time in different power states
system.mem_ctrl.rank0.memoryStateTime::REF    132860000                       # Time in different power states
system.mem_ctrl.rank0.memoryStateTime::SREF            0                       # Time in different power states
system.mem_ctrl.rank0.memoryStateTime::PRE_PDN            0                       # Time in different power states
system.mem_ctrl.rank0.memoryStateTime::ACT   2094560000                       # Time in different power states
system.mem_ctrl.rank0.memoryStateTime::ACT_PDN            0                       # Time in different power states
system.mem_ctrl.power_state.pwrStateResidencyTicks::UNDEFINED   3984600000                       # Cumulative time (in ticks) in various power states
system.cache_medium.blocked_cycles::no_mshrs            0                       # number of cycles access was blocked
system.cache_medium.blocked_cycles::no_targets            0                       # number of cycles access was blocked
system.cache_medium.blocked::no_mshrs               0                       # number of cycles access was blocked
system.cache_medium.blocked::no_targets             0                       # number of cycles access was blocked
system.cache_medium.avg_blocked_cycles::no_mshrs          nan                       # average number of cycles each access was blocked
system.cache_medium.avg_blocked_cycles::no_targets          nan                       # average number of cycles each access was blocked
system.cache_medium.replacements                    0                       # number of replacements
system.cache_medium.power_state.pwrStateResidencyTicks::UNDEFINED   3984600000                       # Cumulative time (in ticks) in various power states
system.cache_medium.tags.tagsinuse                  0                       # Cycle average of tags in use
system.cache_medium.tags.total_refs                 0                       # Total number of references to valid blocks.
system.cache_medium.tags.sampled_refs               0                       # Sample count of references to valid blocks.
system.cache_medium.tags.avg_refs                 nan                       # Average number of references to valid blocks.
system.cache_medium.tags.warmup_cycle               0                       # Cycle when the warmup percentage was hit.
system.cache_medium.tags.tag_accesses               0                       # Number of tag accesses
system.cache_medium.tags.data_accesses              0                       # Number of data accesses
system.cache_medium.tags.power_state.pwrStateResidencyTicks::UNDEFINED   3984600000                       # Cumulative time (in ticks) in various power states
system.clk_domain.clock                          1000                       # Clock period in ticks
system.clk_domain.voltage_domain.voltage            1                       # Voltage in Volts
system.dcache.demand_hits::.cpu.data           359957                       # number of demand (read+write) hits
system.dcache.demand_hits::total               359957                       # number of demand (read+write) hits
system.dcache.overall_hits::.cpu.data          360032                       # number of overall hits
system.dcache.overall_hits::total              360032                       # number of overall hits
system.dcache.demand_misses::.cpu.data           8826                       # number of demand (read+write) misses
system.dcache.demand_misses::total               8826                       # number of demand (read+write) misses
system.dcache.overall_misses::.cpu.data          8826                       # number of overall misses
system.dcache.overall_misses::total              8826                       # number of overall misses
system.dcache.demand_miss_latency::.cpu.data    260769000                       # number of demand (read+write) miss cycles
system.dcache.demand_miss_latency::total    260769000                       # number of demand (read+write) miss cycles
system.dcache.overall_miss_latency::.cpu.data    260769000                       # number of overall miss cycles
system.dcache.overall_miss_latency::total    260769000                       # number of overall miss cycles
system.dcache.demand_accesses::.cpu.data       368783                       # number of demand (read+write) accesses
system.dcache.demand_accesses::total           368783                       # number of demand (read+write) accesses
system.dcache.overall_accesses::.cpu.data       368858                       # number of overall (read+write) accesses
system.dcache.overall_accesses::total          368858                       # number of overall (read+write) accesses
system.dcache.demand_miss_rate::.cpu.data     0.023933                       # miss rate for demand accesses
system.dcache.demand_miss_rate::total        0.023933                       # miss rate for demand accesses
system.dcache.overall_miss_rate::.cpu.data     0.023928                       # miss rate for overall accesses
system.dcache.overall_miss_rate::total       0.023928                       # miss rate for overall accesses
system.dcache.demand_avg_miss_latency::.cpu.data 29545.547247                       # average overall miss latency
system.dcache.demand_avg_miss_latency::total 29545.547247                       # average overall miss latency
system.dcache.overall_avg_miss_latency::.cpu.data 29545.547247                       # average overall miss latency
system.dcache.overall_avg_miss_latency::total 29545.547247                       # average overall miss latency
system.dcache.blocked_cycles::no_mshrs              0                       # number of cycles access was blocked
system.dcache.blocked_cycles::no_targets            0                       # number of cycles access was blocked
system.dcache.blocked::no_mshrs                     0                       # number of cycles access was blocked
system.dcache.blocked::no_targets                   0                       # number of cycles access was blocked
system.dcache.avg_blocked_cycles::no_mshrs          nan                       # average number of cycles each access was blocked
system.dcache.avg_blocked_cycles::no_targets          nan                       # average number of cycles each access was blocked
system.dcache.writebacks::.writebacks            4335                       # number of writebacks
system.dcache.writebacks::total                  4335                       # number of writebacks
system.dcache.demand_mshr_misses::.cpu.data         8826                       # number of demand (read+write) MSHR misses
system.dcache.demand_mshr_misses::total          8826                       # number of demand (read+write) MSHR misses
system.dcache.overall_mshr_misses::.cpu.data         8826                       # number of overall MSHR misses
system.dcache.overall_mshr_misses::total         8826                       # number of overall MSHR misses
system.dcache.demand_mshr_miss_latency::.cpu.data    243119000                       # number of demand (read+write) MSHR miss cycles
[...]
system.dcache.tags.age_task_id_blocks_1024::2          106                       # Occupied blocks per task id
system.dcache.tags.age_task_id_blocks_1024::3           87                       # Occupied blocks per task id
system.dcache.tags.occ_task_id_percent::1024            1                       # Percentage of cache occupancy per task id
system.dcache.tags.tag_accesses               2699774                       # Number of tag accesses
system.dcache.tags.data_accesses              2699774                       # Number of data accesses
system.dcache.tags.power_state.pwrStateResidencyTicks::UNDEFINED  26943146000                       # Cumulative time (in ticks) in various power states
system.cache_large.blocked_cycles::no_mshrs            0                       # number of cycles access was blocked
system.cache_large.blocked_cycles::no_targets            0                       # number of cycles access was blocked
system.cache_large.blocked::no_mshrs                0                       # number of cycles access was blocked
system.cache_large.blocked::no_targets              0                       # number of cycles access was blocked
system.cache_large.avg_blocked_cycles::no_mshrs          nan                       # average number of cycles each access was blocked
system.cache_large.avg_blocked_cycles::no_targets          nan                       # average number of cycles each access was blocked
system.cache_large.replacements                     0                       # number of replacements
system.cache_large.power_state.pwrStateResidencyTicks::UNDEFINED  26943146000                       # Cumulative time (in ticks) in various power states
system.cache_large.tags.tagsinuse                   0                       # Cycle average of tags in use
system.cache_large.tags.total_refs                  0                       # Total number of references to valid blocks.
system.cache_large.tags.sampled_refs                0                       # Sample count of references to valid blocks.
system.cache_large.tags.avg_refs                  nan                       # Average number of references to valid blocks.
system.cache_large.tags.warmup_cycle                0                       # Cycle when the warmup percentage was hit.
system.cache_large.tags.tag_accesses                0                       # Number of tag accesses
system.cache_large.tags.data_accesses               0                       # Number of data accesses
system.cache_large.tags.power_state.pwrStateResidencyTicks::UNDEFINED  26943146000                       # Cumulative time (in ticks) in various power states
system.l2cache.demand_hits::.cpu.inst           40098                       # number of demand (read+write) hits
system.l2cache.demand_hits::.cpu.data           35519                       # number of demand (read+write) hits
system.l2cache.demand_hits::total               75617                       # number of demand (read+write) hits
system.l2cache.overall_hits::.cpu.inst          40098                       # number of overall hits
system.l2cache.overall_hits::.cpu.data          35519                       # number of overall hits
system.l2cache.overall_hits::total              75617                       # number of overall hits
system.l2cache.demand_misses::.cpu.inst         68332                       # number of demand (read+write) misses
system.l2cache.demand_misses::.cpu.data         32868                       # number of demand (read+write) misses
system.l2cache.demand_misses::total            101200                       # number of demand (read+write) misses
system.l2cache.overall_misses::.cpu.inst        68332                       # number of overall misses
system.l2cache.overall_misses::.cpu.data        32868                       # number of overall misses
system.l2cache.overall_misses::total           101200                       # number of overall misses
system.l2cache.demand_miss_latency::.cpu.inst   1150950000                       # number of demand (read+write) miss cycles
system.l2cache.demand_miss_latency::.cpu.data    778387000                       # number of demand (read+write) miss cycles
system.l2cache.demand_miss_latency::total   1929337000                       # number of demand (read+write) miss cycles
system.l2cache.overall_miss_latency::.cpu.inst   1150950000                       # number of overall miss cycles
system.l2cache.overall_miss_latency::.cpu.data    778387000                       # number of overall miss cycles
system.l2cache.overall_miss_latency::total   1929337000                       # number of overall miss cycles
system.l2cache.demand_accesses::.cpu.inst       108430                       # number of demand (read+write) accesses
system.l2cache.demand_accesses::.cpu.data        68387                       # number of demand (read+write) accesses
system.l2cache.demand_accesses::total          176817                       # number of demand (read+write) accesses
system.l2cache.overall_accesses::.cpu.inst       108430                       # number of overall (read+write) accesses
system.l2cache.overall_accesses::.cpu.data        68387                       # number of overall (read+write) accesses
system.l2cache.overall_accesses::total         176817                       # number of overall (read+write) accesses
system.l2cache.demand_miss_rate::.cpu.inst     0.630195                       # miss rate for demand accesses
system.l2cache.demand_miss_rate::.cpu.data     0.480618                       # miss rate for demand accesses
system.l2cache.demand_miss_rate::total       0.572343                       # miss rate for demand accesses
system.l2cache.overall_miss_rate::.cpu.inst     0.630195                       # miss rate for overall accesses
system.l2cache.overall_miss_rate::.cpu.data     0.480618                       # miss rate for overall accesses
system.l2cache.overall_miss_rate::total      0.572343                       # miss rate for overall accesses
system.l2cache.demand_avg_miss_latency::.cpu.inst 16843.499385                       # average overall miss latency
system.l2cache.demand_avg_miss_latency::.cpu.data 23682.213703                       # average overall miss latency
system.l2cache.demand_avg_miss_latency::total 19064.594862                       # average overall miss latency
system.l2cache.overall_avg_miss_latency::.cpu.inst 16843.499385                       # average overall miss latency
system.l2cache.overall_avg_miss_latency::.cpu.data 23682.213703                       # average overall miss latency
system.l2cache.overall_avg_miss_latency::total 19064.594862                       # average overall miss latency
system.l2cache.blocked_cycles::no_mshrs             0                       # number of cycles access was blocked
system.l2cache.blocked_cycles::no_targets            0                       # number of cycles access was blocked
system.l2cache.blocked::no_mshrs                    0                       # number of cycles access was blocked
system.l2cache.blocked::no_targets                  0                       # number of cycles access was blocked
system.l2cache.avg_blocked_cycles::no_mshrs          nan                       # average number of cycles each access was blocked
system.l2cache.avg_blocked_cycles::no_targets          nan                       # average number of cycles each access was blocked
system.l2cache.writebacks::.writebacks          15261                       # number of writebacks
system.l2cache.writebacks::total                15261                       # number of writebacks
system.l2cache.demand_mshr_misses::.cpu.inst        68332                       # number of demand (read+write) MSHR misses
system.l2cache.demand_mshr_misses::.cpu.data        32868                       # number of demand (read+write) MSHR misses
system.l2cache.demand_mshr_misses::total       101200                       # number of demand (read+write) MSHR misses
system.l2cache.overall_mshr_misses::.cpu.inst        68332                       # number of overall MSHR misses
system.l2cache.overall_mshr_misses::.cpu.data        32868                       # number of overall MSHR misses
system.l2cache.overall_mshr_misses::total       101200                       # number of overall MSHR misses
system.l2cache.demand_mshr_miss_latency::.cpu.inst   1014286000                       # number of demand (read+write) MSHR miss cycles
system.l2cache.demand_mshr_miss_latency::.cpu.data    712651000                       # number of demand (read+write) MSHR miss cycles
system.l2cache.demand_mshr_miss_latency::total   1726937000                       # number of demand (read+write) MSHR miss cycles
system.l2cache.overall_mshr_miss_latency::.cpu.inst   1014286000                       # number of overall MSHR miss cycles
system.l2cache.overall_mshr_miss_latency::.cpu.data    712651000                       # number of overall MSHR miss cycles
system.l2cache.overall_mshr_miss_latency::total   1726937000                       # number of overall MSHR miss cycles
system.l2cache.demand_mshr_miss_rate::.cpu.inst     0.630195                       # mshr miss rate for demand accesses
system.l2cache.demand_mshr_miss_rate::.cpu.data     0.480618                       # mshr miss rate for demand accesses
system.l2cache.demand_mshr_miss_rate::total     0.572343                       # mshr miss rate for demand accesses
system.l2cache.overall_mshr_miss_rate::.cpu.inst     0.630195                       # mshr miss rate for overall accesses
system.l2cache.overall_mshr_miss_rate::.cpu.data     0.480618                       # mshr miss rate for overall accesses
system.l2cache.overall_mshr_miss_rate::total     0.572343                       # mshr miss rate for overall accesses
system.l2cache.demand_avg_mshr_miss_latency::.cpu.inst 14843.499385                       # average overall mshr miss latency
system.l2cache.demand_avg_mshr_miss_latency::.cpu.data 21682.213703                       # average overall mshr miss latency
system.l2cache.demand_avg_mshr_miss_latency::total 17064.594862                       # average overall mshr miss latency
system.l2cache.overall_avg_mshr_miss_latency::.cpu.inst 14843.499385                       # average overall mshr miss latency
system.l2cache.overall_avg_mshr_miss_latency::.cpu.data 21682.213703                       # average overall mshr miss latency
system.l2cache.overall_avg_mshr_miss_latency::total 17064.594862                       # average overall mshr miss latency
system.l2cache.replacements                    113804                       # number of replacements
system.l2cache.ReadReq_hits::.cpu.inst          40098                       # number of ReadReq hits
system.l2cache.ReadReq_hits::.cpu.data          35519                       # number of ReadReq hits
system.l2cache.ReadReq_hits::total              75617                       # number of ReadReq hits
system.l2cache.ReadReq_misses::.cpu.inst        68332                       # number of ReadReq misses
system.l2cache.ReadReq_misses::.cpu.data        32868                       # number of ReadReq misses
system.l2cache.ReadReq_misses::total           101200                       # number of ReadReq misses
system.l2cache.ReadReq_miss_latency::.cpu.inst   1150950000                       # number of ReadReq miss cycles
system.l2cache.ReadReq_miss_latency::.cpu.data    778387000                       # number of ReadReq miss cycles
system.l2cache.ReadReq_miss_latency::total   1929337000                       # number of ReadReq miss cycles
system.l2cache.ReadReq_accesses::.cpu.inst       108430                       # number of ReadReq accesses(hits+misses)
system.l2cache.ReadReq_accesses::.cpu.data        68387                       # number of ReadReq accesses(hits+misses)
system.l2cache.ReadReq_accesses::total         176817                       # number of ReadReq accesses(hits+misses)
system.l2cache.ReadReq_miss_rate::.cpu.inst     0.630195                       # miss rate for ReadReq accesses
system.l2cache.ReadReq_miss_rate::.cpu.data     0.480618                       # miss rate for ReadReq accesses
system.l2cache.ReadReq_miss_rate::total      0.572343                       # miss rate for ReadReq accesses
system.l2cache.ReadReq_avg_miss_latency::.cpu.inst 16843.499385                       # average ReadReq miss latency
system.l2cache.ReadReq_avg_miss_latency::.cpu.data 23682.213703                       # average ReadReq miss latency
system.l2cache.ReadReq_avg_miss_latency::total 19064.594862                       # average ReadReq miss latency
system.l2cache.ReadReq_mshr_misses::.cpu.inst        68332                       # number of ReadReq MSHR misses
system.l2cache.ReadReq_mshr_misses::.cpu.data        32868                       # number of ReadReq MSHR misses
system.l2cache.ReadReq_mshr_misses::total       101200                       # number of ReadReq MSHR misses
system.l2cache.ReadReq_mshr_miss_latency::.cpu.inst   1014286000                       # number of ReadReq MSHR miss cycles
system.l2cache.ReadReq_mshr_miss_latency::.cpu.data    712651000                       # number of ReadReq MSHR miss cycles
system.l2cache.ReadReq_mshr_miss_latency::total   1726937000                       # number of ReadReq MSHR miss cycles
system.l2cache.ReadReq_mshr_miss_rate::.cpu.inst     0.630195                       # mshr miss rate for ReadReq accesses
system.l2cache.ReadReq_mshr_miss_rate::.cpu.data     0.480618                       # mshr miss rate for ReadReq accesses
system.l2cache.ReadReq_mshr_miss_rate::total     0.572343                       # mshr miss rate for ReadReq accesses
system.l2cache.ReadReq_avg_mshr_miss_latency::.cpu.inst 14843.499385                       # average ReadReq mshr miss latency
system.l2cache.ReadReq_avg_mshr_miss_latency::.cpu.data 21682.213703                       # average ReadReq mshr miss latency
system.l2cache.ReadReq_avg_mshr_miss_latency::total 17064.594862                       # average ReadReq mshr miss latency
system.l2cache.WritebackDirty_hits::.writebacks        23707                       # number of WritebackDirty hits
system.l2cache.WritebackDirty_hits::total        23707                       # number of WritebackDirty hits
system.l2cache.WritebackDirty_accesses::.writebacks        23707                       # number of WritebackDirty accesses(hits+misses)
system.l2cache.WritebackDirty_accesses::total        23707                       # number of WritebackDirty accesses(hits+misses)
system.l2cache.power_state.pwrStateResidencyTicks::UNDEFINED  26943146000                       # Cumulative time (in ticks) in various power states
system.l2cache.tags.tagsinuse              510.255154                       # Cycle average of tags in use
system.l2cache.tags.total_refs                 200524                       # Total number of references to valid blocks.
system.l2cache.tags.sampled_refs               114316                       # Sample count of references to valid blocks.
system.l2cache.tags.avg_refs                 1.754120                       # Average number of references to valid blocks.
system.l2cache.tags.warmup_cycle                78000                       # Cycle when the warmup percentage was hit.
system.l2cache.tags.occ_blocks::.writebacks    66.681838                       # Average occupied blocks per requestor
system.l2cache.tags.occ_blocks::.cpu.inst   250.896141                       # Average occupied blocks per requestor
system.l2cache.tags.occ_blocks::.cpu.data   192.677175                       # Average occupied blocks per requestor
system.l2cache.tags.occ_percent::.writebacks     0.130238                       # Average percentage of cache occupancy
system.l2cache.tags.occ_percent::.cpu.inst     0.490032                       # Average percentage of cache occupancy
system.l2cache.tags.occ_percent::.cpu.data     0.376323                       # Average percentage of cache occupancy
system.l2cache.tags.occ_percent::total       0.996592                       # Average percentage of cache occupancy
system.l2cache.tags.occ_task_id_blocks::1024          512                       # Occupied blocks per task id
system.l2cache.tags.age_task_id_blocks_1024::0           64                       # Occupied blocks per task id
system.l2cache.tags.age_task_id_blocks_1024::1          109                       # Occupied blocks per task id
system.l2cache.tags.age_task_id_blocks_1024::2          179                       # Occupied blocks per task id
system.l2cache.tags.age_task_id_blocks_1024::3          160                       # Occupied blocks per task id
system.l2cache.tags.occ_task_id_percent::1024            1                       # Percentage of cache occupancy per task id
system.l2cache.tags.tag_accesses               314840                       # Number of tag accesses
system.l2cache.tags.data_accesses              314840                       # Number of data accesses
system.l2cache.tags.power_state.pwrStateResidencyTicks::UNDEFINED  26943146000                       # Cumulative time (in ticks) in various power states
system.l2bar.trans_dist::ReadReq               176817                       # Transaction distribution
system.l2bar.trans_dist::ReadResp              176817                       # Transaction distribution
system.l2bar.trans_dist::WritebackDirty         23707                       # Transaction distribution
system.l2bar.pkt_count_system.dcache.mem_side::system.l2cache.cpu_side       160481                       # Packet count per connected master and slave (bytes)
system.l2bar.pkt_count_system.icache.mem_side::system.l2cache.cpu_side       216860                       # Packet count per connected master and slave (bytes)
system.l2bar.pkt_count::total                  377341                       # Packet count per connected master and slave (bytes)
system.l2bar.pkt_size_system.dcache.mem_side::system.l2cache.cpu_side      5894016                       # Cumulative packet size per connected master and slave (bytes)
system.l2bar.pkt_size_system.icache.mem_side::system.l2cache.cpu_side      6939520                       # Cumulative packet size per connected master and slave (bytes)
system.l2bar.pkt_size::total                 12833536                       # Cumulative packet size per connected master and slave (bytes)
system.l2bar.respLayer1.occupancy           542150000                       # Layer occupancy (ticks)
system.l2bar.respLayer1.utilization               2.0                       # Layer utilization (%)
system.l2bar.reqLayer0.occupancy            295352000                       # Layer occupancy (ticks)
system.l2bar.reqLayer0.utilization                1.1                       # Layer utilization (%)
system.l2bar.respLayer0.occupancy           341935000                       # Layer occupancy (ticks)
system.l2bar.respLayer0.utilization               1.3                       # Layer utilization (%)
system.l2bar.power_state.pwrStateResidencyTicks::UNDEFINED  26943146000                       # Cumulative time (in ticks) in various power states
system.cpu.dtb.walker.power_state.pwrStateResidencyTicks::UNDEFINED  26943146000                       # Cumulative time (in ticks) in various power states
system.cpu.interrupts.clk_domain.clock          16000                       # Clock period in ticks
system.cpu.itb.walker.power_state.pwrStateResidencyTicks::UNDEFINED  26943146000                       # Cumulative time (in ticks) in various power states
system.cpu.power_state.numTransitions               1                       # Number of power state transitions
system.cpu.power_state.pwrStateResidencyTicks::ON  26943146000                       # Cumulative time (in ticks) in various power states

---------- End Simulation Statistics   ----------
