
---------- Begin Simulation Statistics ----------
final_tick                                13118003000                       # Number of ticks from beginning of simulation (restored from checkpoints and never reset)
host_inst_rate                                  48202                       # Simulator instruction rate (inst/s)
host_mem_usage                               34194272                       # Number of bytes of host memory used
host_op_rate                                    57411                       # Simulator op (including micro ops) rate (op/s)
host_seconds                                    20.75                       # Real time elapsed on the host
host_tick_rate                              632296175                       # Simulator tick rate (ticks/s)
sim_freq                                 1000000000000                       # Frequency of simulated ticks
sim_insts                                     1000011                       # Number of instructions simulated
sim_ops                                       1191070                       # Number of ops (including micro ops) simulated
sim_seconds                                  0.013118                       # Number of seconds simulated
sim_ticks                                 13118003000                       # Number of ticks simulated
system.cpu.Branches                             47836                       # Number of branches fetched
system.cpu.committedInsts                     1000011                       # Number of instructions committed
system.cpu.committedOps                       1191070                       # Number of ops (including micro ops) committed
system.cpu.dtb.rdAccesses                        4691                       # TLB accesses on read requests
system.cpu.dtb.rdMisses                            16                       # TLB misses on read requests
system.cpu.dtb.wrAccesses                      856685                       # TLB accesses on write requests
system.cpu.dtb.wrMisses                          3343                       # TLB misses on write requests
system.cpu.idle_fraction                            0                       # Percentage of idle cycles
system.cpu.itb.rdAccesses                           0                       # TLB accesses on read requests
system.cpu.itb.rdMisses                             0                       # TLB misses on read requests
system.cpu.itb.wrAccesses                     1563166                       # TLB accesses on write requests
system.cpu.itb.wrMisses                            47                       # TLB misses on write requests
system.cpu.not_idle_fraction                        1                       # Percentage of non-idle cycles
system.cpu.numCycles                         13117992                       # number of cpu cycles simulated
system.cpu.numWorkItemsCompleted                    0                       # number of work items this cpu completed
system.cpu.numWorkItemsStarted                      0                       # number of work items this cpu started
system.cpu.num_busy_cycles                   13117992                       # Number of busy cycles
system.cpu.num_cc_register_reads               238038                       # number of times the CC registers were read
system.cpu.num_cc_register_writes              182766                       # number of times the CC registers were written
system.cpu.num_conditional_control_insts        46659                       # number of instructions that are conditional controls
system.cpu.num_fp_alu_accesses                 810252                       # Number of float alu accesses
system.cpu.num_fp_insts                        810252                       # number of float instructions
system.cpu.num_fp_register_reads               810763                       # number of times the floating registers were read
system.cpu.num_fp_register_writes                 609                       # number of times the floating registers were written
system.cpu.num_func_calls                         829                       # number of times a function call or return occured
system.cpu.num_idle_cycles                          0                       # Number of idle cycles
system.cpu.num_int_alu_accesses               1191931                       # Number of integer alu accesses
system.cpu.num_int_insts                      1191931                       # number of integer instructions
system.cpu.num_int_register_reads             3022943                       # number of times the integer registers were read
system.cpu.num_int_register_writes             287598                       # number of times the integer registers were written
system.cpu.num_load_insts                        4676                       # Number of load instructions
system.cpu.num_mem_refs                        861360                       # number of memory refs
system.cpu.num_store_insts                     856684                       # Number of store instructions
system.cpu.num_vec_alu_accesses                     0                       # Number of vector alu accesses
system.cpu.num_vec_insts                            0                       # number of vector instructions
system.cpu.num_vec_register_reads                   0                       # number of times the vector registers were read
system.cpu.num_vec_register_writes                  0                       # number of times the vector registers were written
system.cpu.op_class::No_OpClass                   186      0.02%      0.02% # Class of executed instruction
system.cpu.op_class::IntAlu                    330542     27.71%     27.73% # Class of executed instruction
system.cpu.op_class::IntMult                       29      0.00%     27.73% # Class of executed instruction
system.cpu.op_class::IntDiv                        70      0.01%     27.74% # Class of executed instruction
system.cpu.op_class::FloatAdd                      19      0.00%     27.74% # Class of executed instruction
system.cpu.op_class::FloatCmp                       0      0.00%     27.74% # Class of executed instruction
system.cpu.op_class::FloatCvt                       0      0.00%     27.74% # Class of executed instruction
system.cpu.op_class::FloatMult                      0      0.00%     27.74% # Class of executed instruction
system.cpu.op_class::FloatMultAcc                   0      0.00%     27.74% # Class of executed instruction
system.cpu.op_class::FloatDiv                       0      0.00%     27.74% # Class of executed instruction
system.cpu.op_class::FloatMisc                      0      0.00%     27.74% # Class of executed instruction
system.cpu.op_class::FloatSqrt                      0      0.00%     27.74% # Class of executed instruction
system.cpu.op_class::SimdAdd                        0      0.00%     27.74% # Class of executed instruction
system.cpu.op_class::SimdAddAcc                     0      0.00%     27.74% # Class of executed instruction
system.cpu.op_class::SimdAlu                      152      0.01%     27.75% # Class of executed instruction
system.cpu.op_class::SimdCmp                        0      0.00%     27.75% # Class of executed instruction
system.cpu.op_class::SimdCvt                      158      0.01%     27.76% # Class of executed instruction
system.cpu.op_class::SimdMisc                     221      0.02%     27.78% # Class of executed instruction
system.cpu.op_class::SimdMult                       0      0.00%     27.78% # Class of executed instruction
system.cpu.op_class::SimdMultAcc                    0      0.00%     27.78% # Class of executed instruction
system.cpu.op_class::SimdShift                      0      0.00%     27.78% # Class of executed instruction
system.cpu.op_class::SimdShiftAcc                   0      0.00%     27.78% # Class of executed instruction
system.cpu.op_class::SimdDiv                        0      0.00%     27.78% # Class of executed instruction
system.cpu.op_class::SimdSqrt                       0      0.00%     27.78% # Class of executed instruction
system.cpu.op_class::SimdFloatAdd                   0      0.00%     27.78% # Class of executed instruction
system.cpu.op_class::SimdFloatAlu                   0      0.00%     27.78% # Class of executed instruction
system.cpu.op_class::SimdFloatCmp                   0      0.00%     27.78% # Class of executed instruction
system.cpu.op_class::SimdFloatCvt                   2      0.00%     27.78% # Class of executed instruction
system.cpu.op_class::SimdFloatDiv                   0      0.00%     27.78% # Class of executed instruction
system.cpu.op_class::SimdFloatMisc                  0      0.00%     27.78% # Class of executed instruction
system.cpu.op_class::SimdFloatMult                  0      0.00%     27.78% # Class of executed instruction
system.cpu.op_class::SimdFloatMultAcc               0      0.00%     27.78% # Class of executed instruction
system.cpu.op_class::SimdFloatSqrt                  0      0.00%     27.78% # Class of executed instruction
system.cpu.op_class::SimdReduceAdd                  0      0.00%     27.78% # Class of executed instruction
system.cpu.op_class::SimdReduceAlu                  0      0.00%     27.78% # Class of executed instruction
system.cpu.op_class::SimdReduceCmp                  0      0.00%     27.78% # Class of executed instruction
system.cpu.op_class::SimdFloatReduceAdd             0      0.00%     27.78% # Class of executed instruction
system.cpu.op_class::SimdFloatReduceCmp             0      0.00%     27.78% # Class of executed instruction
system.cpu.op_class::SimdAes                        0      0.00%     27.78% # Class of executed instruction
system.cpu.op_class::SimdAesMix                     0      0.00%     27.78% # Class of executed instruction
system.cpu.op_class::SimdSha1Hash                   0      0.00%     27.78% # Class of executed instruction
system.cpu.op_class::SimdSha1Hash2                  0      0.00%     27.78% # Class of executed instruction
system.cpu.op_class::SimdSha256Hash                 0      0.00%     27.78% # Class of executed instruction
system.cpu.op_class::SimdSha256Hash2                0      0.00%     27.78% # Class of executed instruction
system.cpu.op_class::SimdShaSigma2                  0      0.00%     27.78% # Class of executed instruction
system.cpu.op_class::SimdShaSigma3                  0      0.00%     27.78% # Class of executed instruction
system.cpu.op_class::SimdPredAlu                    0      0.00%     27.78% # Class of executed instruction
system.cpu.op_class::MemRead                     4574      0.38%     28.17% # Class of executed instruction
system.cpu.op_class::MemWrite                   47152      3.95%     32.12% # Class of executed instruction
system.cpu.op_class::FloatMemRead                 102      0.01%     32.13% # Class of executed instruction
system.cpu.op_class::FloatMemWrite             809532     67.87%    100.00% # Class of executed instruction
system.cpu.op_class::IprAccess                      0      0.00%    100.00% # Class of executed instruction
system.cpu.op_class::InstPrefetch                   0      0.00%    100.00% # Class of executed instruction
system.cpu.op_class::total                    1192739                       # Class of executed instruction
system.cpu.workload.numSyscalls                   108                       # Number of system calls
system.dynamic_cache.flushTicks                     0                       # Ticks taken to flush
system.dynamic_cache.numFlushes                     0                       # Number of Flushes Taken
system.cache_small.demand_hits::.cpu.inst           67                       # number of demand (read+write) hits
system.cache_small.demand_hits::.cpu.data           11                       # number of demand (read+write) hits
system.cache_small.demand_hits::total              78                       # number of demand (read+write) hits
system.cache_small.overall_hits::.cpu.inst           67                       # number of overall hits
system.cache_small.overall_hits::.cpu.data           11                       # number of overall hits
system.cache_small.overall_hits::total             78                       # number of overall hits
system.cache_small.demand_misses::.cpu.inst          510                       # number of demand (read+write) misses
system.cache_small.demand_misses::.cpu.data       106707                       # number of demand (read+write) misses
system.cache_small.demand_misses::total        107217                       # number of demand (read+write) misses
system.cache_small.overall_misses::.cpu.inst          510                       # number of overall misses
system.cache_small.overall_misses::.cpu.data       106707                       # number of overall misses
system.cache_small.overall_misses::total       107217                       # number of overall misses
system.cache_small.demand_miss_latency::.cpu.inst     29668000                       # number of demand (read+write) miss cycles
system.cache_small.demand_miss_latency::.cpu.data   6629795000                       # number of demand (read+write) miss cycles
system.cache_small.demand_miss_latency::total   6659463000                       # number of demand (read+write) miss cycles
system.cache_small.overall_miss_latency::.cpu.inst     29668000                       # number of overall miss cycles
system.cache_small.overall_miss_latency::.cpu.data   6629795000                       # number of overall miss cycles
system.cache_small.overall_miss_latency::total   6659463000                       # number of overall miss cycles
system.cache_small.demand_accesses::.cpu.inst          577                       # number of demand (read+write) accesses
system.cache_small.demand_accesses::.cpu.data       106718                       # number of demand (read+write) accesses
system.cache_small.demand_accesses::total       107295                       # number of demand (read+write) accesses
system.cache_small.overall_accesses::.cpu.inst          577                       # number of overall (read+write) accesses
system.cache_small.overall_accesses::.cpu.data       106718                       # number of overall (read+write) accesses
system.cache_small.overall_accesses::total       107295                       # number of overall (read+write) accesses
system.cache_small.demand_miss_rate::.cpu.inst     0.883882                       # miss rate for demand accesses
system.cache_small.demand_miss_rate::.cpu.data     0.999897                       # miss rate for demand accesses
system.cache_small.demand_miss_rate::total     0.999273                       # miss rate for demand accesses
system.cache_small.overall_miss_rate::.cpu.inst     0.883882                       # miss rate for overall accesses
system.cache_small.overall_miss_rate::.cpu.data     0.999897                       # miss rate for overall accesses
system.cache_small.overall_miss_rate::total     0.999273                       # miss rate for overall accesses
system.cache_small.demand_avg_miss_latency::.cpu.inst 58172.549020                       # average overall miss latency
system.cache_small.demand_avg_miss_latency::.cpu.data 62130.834903                       # average overall miss latency
system.cache_small.demand_avg_miss_latency::total 62112.006492                       # average overall miss latency
system.cache_small.overall_avg_miss_latency::.cpu.inst 58172.549020                       # average overall miss latency
system.cache_small.overall_avg_miss_latency::.cpu.data 62130.834903                       # average overall miss latency
system.cache_small.overall_avg_miss_latency::total 62112.006492                       # average overall miss latency
system.cache_small.blocked_cycles::no_mshrs            0                       # number of cycles access was blocked
system.cache_small.blocked_cycles::no_targets            0                       # number of cycles access was blocked
system.cache_small.blocked::no_mshrs                0                       # number of cycles access was blocked
system.cache_small.blocked::no_targets              0                       # number of cycles access was blocked
system.cache_small.avg_blocked_cycles::no_mshrs          nan                       # average number of cycles each access was blocked
system.cache_small.avg_blocked_cycles::no_targets          nan                       # average number of cycles each access was blocked
system.cache_small.writebacks::.writebacks       104594                       # number of writebacks
system.cache_small.writebacks::total           104594                       # number of writebacks
system.cache_small.demand_mshr_misses::.cpu.inst          510                       # number of demand (read+write) MSHR misses
system.cache_small.demand_mshr_misses::.cpu.data       106707                       # number of demand (read+write) MSHR misses
system.cache_small.demand_mshr_misses::total       107217                       # number of demand (read+write) MSHR misses
system.cache_small.overall_mshr_misses::.cpu.inst          510                       # number of overall MSHR misses
system.cache_small.overall_mshr_misses::.cpu.data       106707                       # number of overall MSHR misses
system.cache_small.overall_mshr_misses::total       107217                       # number of overall MSHR misses
system.cache_small.demand_mshr_miss_latency::.cpu.inst     28648000                       # number of demand (read+write) MSHR miss cycles
system.cache_small.demand_mshr_miss_latency::.cpu.data   6416381000                       # number of demand (read+write) MSHR miss cycles
system.cache_small.demand_mshr_miss_latency::total   6445029000                       # number of demand (read+write) MSHR miss cycles
system.cache_small.overall_mshr_miss_latency::.cpu.inst     28648000                       # number of overall MSHR miss cycles
system.cache_small.overall_mshr_miss_latency::.cpu.data   6416381000                       # number of overall MSHR miss cycles
system.cache_small.overall_mshr_miss_latency::total   6445029000                       # number of overall MSHR miss cycles
system.cache_small.demand_mshr_miss_rate::.cpu.inst     0.883882                       # mshr miss rate for demand accesses
system.cache_small.demand_mshr_miss_rate::.cpu.data     0.999897                       # mshr miss rate for demand accesses
system.cache_small.demand_mshr_miss_rate::total     0.999273                       # mshr miss rate for demand accesses
system.cache_small.overall_mshr_miss_rate::.cpu.inst     0.883882                       # mshr miss rate for overall accesses
system.cache_small.overall_mshr_miss_rate::.cpu.data     0.999897                       # mshr miss rate for overall accesses
system.cache_small.overall_mshr_miss_rate::total     0.999273                       # mshr miss rate for overall accesses
system.cache_small.demand_avg_mshr_miss_latency::.cpu.inst 56172.549020                       # average overall mshr miss latency
system.cache_small.demand_avg_mshr_miss_latency::.cpu.data 60130.834903                       # average overall mshr miss latency
system.cache_small.demand_avg_mshr_miss_latency::total 60112.006492                       # average overall mshr miss latency
system.cache_small.overall_avg_mshr_miss_latency::.cpu.inst 56172.549020                       # average overall mshr miss latency
system.cache_small.overall_avg_mshr_miss_latency::.cpu.data 60130.834903                       # average overall mshr miss latency
system.cache_small.overall_avg_mshr_miss_latency::total 60112.006492                       # average overall mshr miss latency
system.cache_small.replacements                105193                       # number of replacements
system.cache_small.ReadReq_hits::.cpu.inst           67                       # number of ReadReq hits
system.cache_small.ReadReq_hits::.cpu.data           11                       # number of ReadReq hits
system.cache_small.ReadReq_hits::total             78                       # number of ReadReq hits
system.cache_small.ReadReq_misses::.cpu.inst          510                       # number of ReadReq misses
system.cache_small.ReadReq_misses::.cpu.data       106707                       # number of ReadReq misses
system.cache_small.ReadReq_misses::total       107217                       # number of ReadReq misses
system.cache_small.ReadReq_miss_latency::.cpu.inst     29668000                       # number of ReadReq miss cycles
system.cache_small.ReadReq_miss_latency::.cpu.data   6629795000                       # number of ReadReq miss cycles
system.cache_small.ReadReq_miss_latency::total   6659463000                       # number of ReadReq miss cycles
system.cache_small.ReadReq_accesses::.cpu.inst          577                       # number of ReadReq accesses(hits+misses)
system.cache_small.ReadReq_accesses::.cpu.data       106718                       # number of ReadReq accesses(hits+misses)
system.cache_small.ReadReq_accesses::total       107295                       # number of ReadReq accesses(hits+misses)
system.cache_small.ReadReq_miss_rate::.cpu.inst     0.883882                       # miss rate for ReadReq accesses
system.cache_small.ReadReq_miss_rate::.cpu.data     0.999897                       # miss rate for ReadReq accesses
system.cache_small.ReadReq_miss_rate::total     0.999273                       # miss rate for ReadReq accesses
system.cache_small.ReadReq_avg_miss_latency::.cpu.inst 58172.549020                       # average ReadReq miss latency
system.cache_small.ReadReq_avg_miss_latency::.cpu.data 62130.834903                       # average ReadReq miss latency
system.cache_small.ReadReq_avg_miss_latency::total 62112.006492                       # average ReadReq miss latency
system.cache_small.ReadReq_mshr_misses::.cpu.inst          510                       # number of ReadReq MSHR misses
system.cache_small.ReadReq_mshr_misses::.cpu.data       106707                       # number of ReadReq MSHR misses
system.cache_small.ReadReq_mshr_misses::total       107217                       # number of ReadReq MSHR misses
system.cache_small.ReadReq_mshr_miss_latency::.cpu.inst     28648000                       # number of ReadReq MSHR miss cycles
system.cache_small.ReadReq_mshr_miss_latency::.cpu.data   6416381000                       # number of ReadReq MSHR miss cycles
system.cache_small.ReadReq_mshr_miss_latency::total   6445029000                       # number of ReadReq MSHR miss cycles
system.cache_small.ReadReq_mshr_miss_rate::.cpu.inst     0.883882                       # mshr miss rate for ReadReq accesses
system.cache_small.ReadReq_mshr_miss_rate::.cpu.data     0.999897                       # mshr miss rate for ReadReq accesses
system.cache_small.ReadReq_mshr_miss_rate::total     0.999273                       # mshr miss rate for ReadReq accesses
system.cache_small.ReadReq_avg_mshr_miss_latency::.cpu.inst 56172.549020                       # average ReadReq mshr miss latency
system.cache_small.ReadReq_avg_mshr_miss_latency::.cpu.data 60130.834903                       # average ReadReq mshr miss latency
system.cache_small.ReadReq_avg_mshr_miss_latency::total 60112.006492                       # average ReadReq mshr miss latency
system.cache_small.WritebackDirty_hits::.writebacks       106146                       # number of WritebackDirty hits
system.cache_small.WritebackDirty_hits::total       106146                       # number of WritebackDirty hits
system.cache_small.WritebackDirty_accesses::.writebacks       106146                       # number of WritebackDirty accesses(hits+misses)
system.cache_small.WritebackDirty_accesses::total       106146                       # number of WritebackDirty accesses(hits+misses)
system.cache_small.power_state.pwrStateResidencyTicks::UNDEFINED  13118003000                       # Cumulative time (in ticks) in various power states
system.cache_small.tags.tagsinuse         2019.489317                       # Cycle average of tags in use
system.cache_small.tags.total_refs             209857                       # Total number of references to valid blocks.
system.cache_small.tags.sampled_refs           105193                       # Sample count of references to valid blocks.
system.cache_small.tags.avg_refs             1.994971                       # Average number of references to valid blocks.
system.cache_small.tags.warmup_cycle            76000                       # Cycle when the warmup percentage was hit.
system.cache_small.tags.occ_blocks::.writebacks     0.304299                       # Average occupied blocks per requestor
system.cache_small.tags.occ_blocks::.cpu.inst     5.985141                       # Average occupied blocks per requestor
system.cache_small.tags.occ_blocks::.cpu.data  2013.199877                       # Average occupied blocks per requestor
system.cache_small.tags.occ_percent::.writebacks     0.000149                       # Average percentage of cache occupancy
system.cache_small.tags.occ_percent::.cpu.inst     0.002922                       # Average percentage of cache occupancy
system.cache_small.tags.occ_percent::.cpu.data     0.983008                       # Average percentage of cache occupancy
system.cache_small.tags.occ_percent::total     0.986079                       # Average percentage of cache occupancy
system.cache_small.tags.occ_task_id_blocks::1024         2048                       # Occupied blocks per task id
system.cache_small.tags.age_task_id_blocks_1024::0           83                       # Occupied blocks per task id
system.cache_small.tags.age_task_id_blocks_1024::1          741                       # Occupied blocks per task id
system.cache_small.tags.age_task_id_blocks_1024::2         1224                       # Occupied blocks per task id
system.cache_small.tags.occ_task_id_percent::1024            1                       # Percentage of cache occupancy per task id
system.cache_small.tags.tag_accesses           320682                       # Number of tag accesses
system.cache_small.tags.data_accesses          320682                       # Number of data accesses
system.cache_small.tags.power_state.pwrStateResidencyTicks::UNDEFINED  13118003000                       # Cumulative time (in ticks) in various power states
system.icache.demand_hits::.cpu.inst          1562527                       # number of demand (read+write) hits
system.icache.demand_hits::total              1562527                       # number of demand (read+write) hits
system.icache.overall_hits::.cpu.inst         1562527                       # number of overall hits
system.icache.overall_hits::total             1562527                       # number of overall hits
system.icache.demand_misses::.cpu.inst            639                       # number of demand (read+write) misses
system.icache.demand_misses::total                639                       # number of demand (read+write) misses
system.icache.overall_misses::.cpu.inst           639                       # number of overall misses
system.icache.overall_misses::total               639                       # number of overall misses
system.icache.demand_miss_latency::.cpu.inst     40560000                       # number of demand (read+write) miss cycles
system.icache.demand_miss_latency::total     40560000                       # number of demand (read+write) miss cycles
system.icache.overall_miss_latency::.cpu.inst     40560000                       # number of overall miss cycles
system.icache.overall_miss_latency::total     40560000                       # number of overall miss cycles
system.icache.demand_accesses::.cpu.inst      1563166                       # number of demand (read+write) accesses
system.icache.demand_accesses::total          1563166                       # number of demand (read+write) accesses
system.icache.overall_accesses::.cpu.inst      1563166                       # number of overall (read+write) accesses
system.icache.overall_accesses::total         1563166                       # number of overall (read+write) accesses
system.icache.demand_miss_rate::.cpu.inst     0.000409                       # miss rate for demand accesses
system.icache.demand_miss_rate::total        0.000409                       # miss rate for demand accesses
system.icache.overall_miss_rate::.cpu.inst     0.000409                       # miss rate for overall accesses
system.icache.overall_miss_rate::total       0.000409                       # miss rate for overall accesses
system.icache.demand_avg_miss_latency::.cpu.inst 63474.178404                       # average overall miss latency
system.icache.demand_avg_miss_latency::total 63474.178404                       # average overall miss latency
system.icache.overall_avg_miss_latency::.cpu.inst 63474.178404                       # average overall miss latency
system.icache.overall_avg_miss_latency::total 63474.178404                       # average overall miss latency
system.icache.blocked_cycles::no_mshrs              0                       # number of cycles access was blocked
system.icache.blocked_cycles::no_targets            0                       # number of cycles access was blocked
system.icache.blocked::no_mshrs                     0                       # number of cycles access was blocked
system.icache.blocked::no_targets                   0                       # number of cycles access was blocked
system.icache.avg_blocked_cycles::no_mshrs          nan                       # average number of cycles each access was blocked
system.icache.avg_blocked_cycles::no_targets          nan                       # average number of cycles each access was blocked
system.icache.demand_mshr_misses::.cpu.inst          639                       # number of demand (read+write) MSHR misses
system.icache.demand_mshr_misses::total           639                       # number of demand (read+write) MSHR misses
system.icache.overall_mshr_misses::.cpu.inst          639                       # number of overall MSHR misses
system.icache.overall_mshr_misses::total          639                       # number of overall MSHR misses
system.icache.demand_mshr_miss_latency::.cpu.inst     39282000                       # number of demand (read+write) MSHR miss cycles
system.icache.demand_mshr_miss_latency::total     39282000                       # number of demand (read+write) MSHR miss cycles
system.icache.overall_mshr_miss_latency::.cpu.inst     39282000                       # number of overall MSHR miss cycles
system.icache.overall_mshr_miss_latency::total     39282000                       # number of overall MSHR miss cycles
system.icache.demand_mshr_miss_rate::.cpu.inst     0.000409                       # mshr miss rate for demand accesses
system.icache.demand_mshr_miss_rate::total     0.000409                       # mshr miss rate for demand accesses
system.icache.overall_mshr_miss_rate::.cpu.inst     0.000409                       # mshr miss rate for overall accesses
system.icache.overall_mshr_miss_rate::total     0.000409                       # mshr miss rate for overall accesses
system.icache.demand_avg_mshr_miss_latency::.cpu.inst 61474.178404                       # average overall mshr miss latency
system.icache.demand_avg_mshr_miss_latency::total 61474.178404                       # average overall mshr miss latency
system.icache.overall_avg_mshr_miss_latency::.cpu.inst 61474.178404                       # average overall mshr miss latency
system.icache.overall_avg_mshr_miss_latency::total 61474.178404                       # average overall mshr miss latency
system.icache.replacements                        417                       # number of replacements
system.icache.ReadReq_hits::.cpu.inst         1562527                       # number of ReadReq hits
system.icache.ReadReq_hits::total             1562527                       # number of ReadReq hits
system.icache.ReadReq_misses::.cpu.inst           639                       # number of ReadReq misses
system.icache.ReadReq_misses::total               639                       # number of ReadReq misses
system.icache.ReadReq_miss_latency::.cpu.inst     40560000                       # number of ReadReq miss cycles
system.icache.ReadReq_miss_latency::total     40560000                       # number of ReadReq miss cycles
system.icache.ReadReq_accesses::.cpu.inst      1563166                       # number of ReadReq accesses(hits+misses)
system.icache.ReadReq_accesses::total         1563166                       # number of ReadReq accesses(hits+misses)
system.icache.ReadReq_miss_rate::.cpu.inst     0.000409                       # miss rate for ReadReq accesses
system.icache.ReadReq_miss_rate::total       0.000409                       # miss rate for ReadReq accesses
system.icache.ReadReq_avg_miss_latency::.cpu.inst 63474.178404                       # average ReadReq miss latency
system.icache.ReadReq_avg_miss_latency::total 63474.178404                       # average ReadReq miss latency
system.icache.ReadReq_mshr_misses::.cpu.inst          639                       # number of ReadReq MSHR misses
system.icache.ReadReq_mshr_misses::total          639                       # number of ReadReq MSHR misses
system.icache.ReadReq_mshr_miss_latency::.cpu.inst     39282000                       # number of ReadReq MSHR miss cycles
system.icache.ReadReq_mshr_miss_latency::total     39282000                       # number of ReadReq MSHR miss cycles
system.icache.ReadReq_mshr_miss_rate::.cpu.inst     0.000409                       # mshr miss rate for ReadReq accesses
system.icache.ReadReq_mshr_miss_rate::total     0.000409                       # mshr miss rate for ReadReq accesses
system.icache.ReadReq_avg_mshr_miss_latency::.cpu.inst 61474.178404                       # average ReadReq mshr miss latency
system.icache.ReadReq_avg_mshr_miss_latency::total 61474.178404                       # average ReadReq mshr miss latency
system.icache.power_state.pwrStateResidencyTicks::UNDEFINED  13118003000                       # Cumulative time (in ticks) in various power states
system.icache.tags.tagsinuse               221.409318                       # Cycle average of tags in use
system.icache.tags.total_refs                   14778                       # Total number of references to valid blocks.
system.icache.tags.sampled_refs                   417                       # Sample count of references to valid blocks.
system.icache.tags.avg_refs                 35.438849                       # Average number of references to valid blocks.
system.icache.tags.warmup_cycle                 82000                       # Cycle when the warmup percentage was hit.
system.icache.tags.occ_blocks::.cpu.inst   221.409318                       # Average occupied blocks per requestor
system.icache.tags.occ_percent::.cpu.inst     0.864880                       # Average percentage of cache occupancy
system.icache.tags.occ_percent::total        0.864880                       # Average percentage of cache occupancy
system.icache.tags.occ_task_id_blocks::1024          222                       # Occupied blocks per task id
system.icache.tags.age_task_id_blocks_1024::4          222                       # Occupied blocks per task id
system.icache.tags.occ_task_id_percent::1024     0.867188                       # Percentage of cache occupancy per task id
system.icache.tags.tag_accesses               1563805                       # Number of tag accesses
system.icache.tags.data_accesses              1563805                       # Number of data accesses
system.icache.tags.power_state.pwrStateResidencyTicks::UNDEFINED  13118003000                       # Cumulative time (in ticks) in various power states
system.membus.trans_dist::ReadReq              107217                       # Transaction distribution
system.membus.trans_dist::ReadResp             107217                       # Transaction distribution
system.membus.trans_dist::WritebackDirty       104594                       # Transaction distribution
system.membus.pkt_count_system.cache_small.mem_side::system.mem_ctrl.port       319028                       # Packet count per connected master and slave (bytes)
system.membus.pkt_count_system.cache_small.mem_side::total       319028                       # Packet count per connected master and slave (bytes)
system.membus.pkt_count::total                 319028                       # Packet count per connected master and slave (bytes)
system.membus.pkt_size_system.cache_small.mem_side::system.mem_ctrl.port     13555904                       # Cumulative packet size per connected master and slave (bytes)
system.membus.pkt_size_system.cache_small.mem_side::total     13555904                       # Cumulative packet size per connected master and slave (bytes)
system.membus.pkt_size::total                13555904                       # Cumulative packet size per connected master and slave (bytes)
system.membus.reqLayer2.occupancy           630187000                       # Layer occupancy (ticks)
system.membus.reqLayer2.utilization               4.8                       # Layer utilization (%)
system.membus.respLayer1.occupancy          564311750                       # Layer occupancy (ticks)
system.membus.respLayer1.utilization              4.3                       # Layer utilization (%)
system.membus.power_state.pwrStateResidencyTicks::UNDEFINED  13118003000                       # Cumulative time (in ticks) in various power states
system.mem_ctrl.bytes_read::.cpu.inst           32640                       # Number of bytes read from this memory
system.mem_ctrl.bytes_read::.cpu.data         6829248                       # Number of bytes read from this memory
system.mem_ctrl.bytes_read::total             6861888                       # Number of bytes read from this memory
system.mem_ctrl.bytes_inst_read::.cpu.inst        32640                       # Number of instructions bytes read from this memory
system.mem_ctrl.bytes_inst_read::total          32640                       # Number of instructions bytes read from this memory
system.mem_ctrl.bytes_written::.writebacks      6694016                       # Number of bytes written to this memory
system.mem_ctrl.bytes_written::total          6694016                       # Number of bytes written to this memory
system.mem_ctrl.num_reads::.cpu.inst              510                       # Number of read requests responded to by this memory
system.mem_ctrl.num_reads::.cpu.data           106707                       # Number of read requests responded to by this memory
system.mem_ctrl.num_reads::total               107217                       # Number of read requests responded to by this memory
system.mem_ctrl.num_writes::.writebacks        104594                       # Number of write requests responded to by this memory
system.mem_ctrl.num_writes::total              104594                       # Number of write requests responded to by this memory
system.mem_ctrl.bw_read::.cpu.inst            2488184                       # Total read bandwidth from this memory (bytes/s)
system.mem_ctrl.bw_read::.cpu.data          520601192                       # Total read bandwidth from this memory (bytes/s)
system.mem_ctrl.bw_read::total              523089376                       # Total read bandwidth from this memory (bytes/s)
system.mem_ctrl.bw_inst_read::.cpu.inst       2488184                       # Instruction read bandwidth from this memory (bytes/s)
system.mem_ctrl.bw_inst_read::total           2488184                       # Instruction read bandwidth from this memory (bytes/s)
system.mem_ctrl.bw_write::.writebacks       510292306                       # Write bandwidth from this memory (bytes/s)
system.mem_ctrl.bw_write::total             510292306                       # Write bandwidth from this memory (bytes/s)
system.mem_ctrl.bw_total::.writebacks       510292306                       # Total bandwidth to/from this memory (bytes/s)
system.mem_ctrl.bw_total::.cpu.inst           2488184                       # Total bandwidth to/from this memory (bytes/s)
system.mem_ctrl.bw_total::.cpu.data         520601192                       # Total bandwidth to/from this memory (bytes/s)
system.mem_ctrl.bw_total::total            1033381682                       # Total bandwidth to/from this memory (bytes/s)
system.mem_ctrl.avgPriority_.writebacks::samples    104594.00                       # Average QoS priority value for accepted requests
system.mem_ctrl.avgPriority_.cpu.inst::samples       510.00                       # Average QoS priority value for accepted requests
system.mem_ctrl.avgPriority_.cpu.data::samples    106707.00                       # Average QoS priority value for accepted requests
system.mem_ctrl.priorityMinLatency       0.000000018750                       # per QoS priority minimum request to response latency (s)
system.mem_ctrl.priorityMaxLatency       0.000456036000                       # per QoS priority maximum request to response latency (s)
system.mem_ctrl.numReadWriteTurnArounds          6263                       # Number of turnarounds from READ to WRITE
system.mem_ctrl.numWriteReadTurnArounds          6263                       # Number of turnarounds from WRITE to READ
system.mem_ctrl.numStayReadState               316331                       # Number of times bus staying in READ state
system.mem_ctrl.numStayWriteState               98471                       # Number of times bus staying in WRITE state
system.mem_ctrl.readReqs                       107217                       # Number of read requests accepted
system.mem_ctrl.writeReqs                      104594                       # Number of write requests accepted
system.mem_ctrl.readBursts                     107217                       # Number of DRAM read bursts, including those serviced by the write queue
system.mem_ctrl.writeBursts                    104594                       # Number of DRAM write bursts, including those merged in the write queue
system.mem_ctrl.servicedByWrQ                       0                       # Number of DRAM read bursts serviced by the write queue
system.mem_ctrl.mergedWrBursts                      0                       # Number of DRAM write bursts merged with an existing one
system.mem_ctrl.neitherReadNorWriteReqs             0                       # Number of requests that are neither read nor write
system.mem_ctrl.perBankRdBursts::0               6731                       # Per bank write bursts
system.mem_ctrl.perBankRdBursts::1               6684                       # Per bank write bursts
system.mem_ctrl.perBankRdBursts::2               6691                       # Per bank write bursts
system.mem_ctrl.perBankRdBursts::3               6702                       # Per bank write bursts
system.mem_ctrl.perBankRdBursts::4               6695                       # Per bank write bursts
system.mem_ctrl.perBankRdBursts::5               6694                       # Per bank write bursts
system.mem_ctrl.perBankRdBursts::6               6683                       # Per bank write bursts
system.mem_ctrl.perBankRdBursts::7               6660                       # Per bank write bursts
system.mem_ctrl.perBankRdBursts::8               6670                       # Per bank write bursts
system.mem_ctrl.perBankRdBursts::9               6738                       # Per bank write bursts
system.mem_ctrl.perBankRdBursts::10              6704                       # Per bank write bursts
system.mem_ctrl.perBankRdBursts::11              6699                       # Per bank write bursts
system.mem_ctrl.perBankRdBursts::12              6695                       # Per bank write bursts
system.mem_ctrl.perBankRdBursts::13              6746                       # Per bank write bursts
system.mem_ctrl.perBankRdBursts::14              6700                       # Per bank write bursts
system.mem_ctrl.perBankRdBursts::15              6725                       # Per bank write bursts
system.mem_ctrl.perBankWrBursts::0               6528                       # Per bank write bursts
system.mem_ctrl.perBankWrBursts::1               6528                       # Per bank write bursts
system.mem_ctrl.perBankWrBursts::2               6528                       # Per bank write bursts
system.mem_ctrl.perBankWrBursts::3               6528                       # Per bank write bursts
system.mem_ctrl.perBankWrBursts::4               6528                       # Per bank write bursts
system.mem_ctrl.perBankWrBursts::5               6528                       # Per bank write bursts
system.mem_ctrl.perBankWrBursts::6               6528                       # Per bank write bursts
system.mem_ctrl.perBankWrBursts::7               6528                       # Per bank write bursts
system.mem_ctrl.perBankWrBursts::8               6530                       # Per bank write bursts
system.mem_ctrl.perBankWrBursts::9               6584                       # Per bank write bursts
system.mem_ctrl.perBankWrBursts::10              6544                       # Per bank write bursts
system.mem_ctrl.perBankWrBursts::11              6558                       # Per bank write bursts
system.mem_ctrl.perBankWrBursts::12              6540                       # Per bank write bursts
system.mem_ctrl.perBankWrBursts::13              6557                       # Per bank write bursts
system.mem_ctrl.perBankWrBursts::14              6501                       # Per bank write bursts
system.mem_ctrl.perBankWrBursts::15              6528                       # Per bank write bursts
system.mem_ctrl.avgRdQLen                        1.00                       # Average read queue length when enqueuing
system.mem_ctrl.avgWrQLen                       25.05                       # Average write queue length when enqueuing
system.mem_ctrl.totQLat                    1082756500                       # Total ticks spent queuing
system.mem_ctrl.totBusLat                   536085000                       # Total ticks spent in databus transfers
system.mem_ctrl.totMemAccLat               3093075250                       # Total ticks spent from burst creation until serviced by the DRAM
system.mem_ctrl.avgQLat                      10098.74                       # Average queueing delay per DRAM burst
system.mem_ctrl.avgBusLat                     5000.00                       # Average bus latency per DRAM burst
system.mem_ctrl.avgMemAccLat                 28848.74                       # Average memory access latency per DRAM burst
system.mem_ctrl.numRdRetry                          0                       # Number of times read queue was full causing retry
system.mem_ctrl.numWrRetry                          0                       # Number of times write queue was full causing retry
system.mem_ctrl.readRowHits                     96746                       # Number of row buffer hits during reads
system.mem_ctrl.writeRowHits                    95642                       # Number of row buffer hits during writes
system.mem_ctrl.readRowHitRate                  90.23                       # Row buffer hit rate for reads
system.mem_ctrl.writeRowHitRate                 91.44                       # Row buffer hit rate for writes
system.mem_ctrl.readPktSize::0                      0                       # Read request sizes (log2)
system.mem_ctrl.readPktSize::1                      0                       # Read request sizes (log2)
system.mem_ctrl.readPktSize::2                      0                       # Read request sizes (log2)
system.mem_ctrl.readPktSize::3                      0                       # Read request sizes (log2)
system.mem_ctrl.readPktSize::4                      0                       # Read request sizes (log2)
system.mem_ctrl.readPktSize::5                      0                       # Read request sizes (log2)
system.mem_ctrl.readPktSize::6                 107217                       # Read request sizes (log2)
system.mem_ctrl.writePktSize::0                     0                       # Write request sizes (log2)
system.mem_ctrl.writePktSize::1                     0                       # Write request sizes (log2)
system.mem_ctrl.writePktSize::2                     0                       # Write request sizes (log2)
system.mem_ctrl.writePktSize::3                     0                       # Write request sizes (log2)
system.mem_ctrl.writePktSize::4                     0                       # Write request sizes (log2)
system.mem_ctrl.writePktSize::5                     0                       # Write request sizes (log2)
system.mem_ctrl.writePktSize::6                104594                       # Write request sizes (log2)
system.mem_ctrl.rdQLenPdf::0                   107217                       # What read queue length does an incoming req see
system.mem_ctrl.rdQLenPdf::1                        0                       # What read queue length does an incoming req see
system.mem_ctrl.rdQLenPdf::2                        0                       # What read queue length does an incoming req see
system.mem_ctrl.rdQLenPdf::3                        0                       # What read queue length does an incoming req see
system.mem_ctrl.rdQLenPdf::4                        0                       # What read queue length does an incoming req see
system.mem_ctrl.rdQLenPdf::5                        0                       # What read queue length does an incoming req see
system.mem_ctrl.rdQLenPdf::6                        0                       # What read queue length does an incoming req see
system.mem_ctrl.rdQLenPdf::7                        0                       # What read queue length does an incoming req see
system.mem_ctrl.rdQLenPdf::8                        0                       # What read queue length does an incoming req see
system.mem_ctrl.rdQLenPdf::9                        0                       # What read queue length does an incoming req see
system.mem_ctrl.rdQLenPdf::10                       0                       # What read queue length does an incoming req see
system.mem_ctrl.rdQLenPdf::11                       0                       # What read queue length does an incoming req see
system.mem_ctrl.rdQLenPdf::12                       0                       # What read queue length does an incoming req see
system.mem_ctrl.rdQLenPdf::13                       0                       # What read queue length does an incoming req see
system.mem_ctrl.rdQLenPdf::14                       0                       # What read queue length does an incoming req see
system.mem_ctrl.rdQLenPdf::15                       0                       # What read queue length does an incoming req see
system.mem_ctrl.rdQLenPdf::16                       0                       # What read queue length does an incoming req see
system.mem_ctrl.rdQLenPdf::17                       0                       # What read queue length does an incoming req see
system.mem_ctrl.rdQLenPdf::18                       0                       # What read queue length does an incoming req see
system.mem_ctrl.rdQLenPdf::19                       0                       # What read queue length does an incoming req see
system.mem_ctrl.rdQLenPdf::20                       0                       # What read queue length does an incoming req see
system.mem_ctrl.rdQLenPdf::21                       0                       # What read queue length does an incoming req see
system.mem_ctrl.rdQLenPdf::22                       0                       # What read queue length does an incoming req see
system.mem_ctrl.rdQLenPdf::23                       0                       # What read queue length does an incoming req see
system.mem_ctrl.rdQLenPdf::24                       0                       # What read queue length does an incoming req see
system.mem_ctrl.rdQLenPdf::25                       0                       # What read queue length does an incoming req see
system.mem_ctrl.rdQLenPdf::26                       0                       # What read queue length does an incoming req see
system.mem_ctrl.rdQLenPdf::27                       0                       # What read queue length does an incoming req see
system.mem_ctrl.rdQLenPdf::28                       0                       # What read queue length does an incoming req see
system.mem_ctrl.rdQLenPdf::29                       0                       # What read queue length does an incoming req see
system.mem_ctrl.rdQLenPdf::30                       0                       # What read queue length does an incoming req see
system.mem_ctrl.rdQLenPdf::31                       0                       # What read queue length does an incoming req see
system.mem_ctrl.wrQLenPdf::0                        1                       # What write queue length does an incoming req see
system.mem_ctrl.wrQLenPdf::1                        1                       # What write queue length does an incoming req see
system.mem_ctrl.wrQLenPdf::2                        1                       # What write queue length does an incoming req see
system.mem_ctrl.wrQLenPdf::3                        1                       # What write queue length does an incoming req see
system.mem_ctrl.wrQLenPdf::4                        1                       # What write queue length does an incoming req see
system.mem_ctrl.wrQLenPdf::5                        1                       # What write queue length does an incoming req see
system.mem_ctrl.wrQLenPdf::6                        1                       # What write queue length does an incoming req see
system.mem_ctrl.wrQLenPdf::7                        1                       # What write queue length does an incoming req see
system.mem_ctrl.wrQLenPdf::8                        1                       # What write queue length does an incoming req see
system.mem_ctrl.wrQLenPdf::9                        1                       # What write queue length does an incoming req see
system.mem_ctrl.wrQLenPdf::10                       1                       # What write queue length does an incoming req see
system.mem_ctrl.wrQLenPdf::11                       1                       # What write queue length does an incoming req see
system.mem_ctrl.wrQLenPdf::12                       1                       # What write queue length does an incoming req see
system.mem_ctrl.wrQLenPdf::13                       1                       # What write queue length does an incoming req see
system.mem_ctrl.wrQLenPdf::14                       1                       # What write queue length does an incoming req see
system.mem_ctrl.wrQLenPdf::15                    2089                       # What write queue length does an incoming req see
system.mem_ctrl.wrQLenPdf::16                    2229                       # What write queue length does an incoming req see
system.mem_ctrl.wrQLenPdf::17                    6253                       # What write queue length does an incoming req see
system.mem_ctrl.wrQLenPdf::18                    6268                       # What write queue length does an incoming req see
system.mem_ctrl.wrQLenPdf::19                    6268                       # What write queue length does an incoming req see
system.mem_ctrl.wrQLenPdf::20                    6264                       # What write queue length does an incoming req see
system.mem_ctrl.wrQLenPdf::21                    6265                       # What write queue length does an incoming req see
system.mem_ctrl.wrQLenPdf::22                    6264                       # What write queue length does an incoming req see
system.mem_ctrl.wrQLenPdf::23                    6264                       # What write queue length does an incoming req see
system.mem_ctrl.wrQLenPdf::24                    6264                       # What write queue length does an incoming req see
system.mem_ctrl.wrQLenPdf::25                    6266                       # What write queue length does an incoming req see
system.mem_ctrl.wrQLenPdf::26                    6270                       # What write queue length does an incoming req see
system.mem_ctrl.wrQLenPdf::27                    6300                       # What write queue length does an incoming req see
system.mem_ctrl.wrQLenPdf::28                    6263                       # What write queue length does an incoming req see
system.mem_ctrl.wrQLenPdf::29                    6263                       # What write queue length does an incoming req see
system.mem_ctrl.wrQLenPdf::30                    6263                       # What write queue length does an incoming req see
system.mem_ctrl.wrQLenPdf::31                    6263                       # What write queue length does an incoming req see
system.mem_ctrl.wrQLenPdf::32                    6263                       # What write queue length does an incoming req see
system.mem_ctrl.wrQLenPdf::33                       0                       # What write queue length does an incoming req see
system.mem_ctrl.wrQLenPdf::34                       0                       # What write queue length does an incoming req see
system.mem_ctrl.wrQLenPdf::35                       0                       # What write queue length does an incoming req see
system.mem_ctrl.wrQLenPdf::36                       0                       # What write queue length does an incoming req see
system.mem_ctrl.wrQLenPdf::37                       0                       # What write queue length does an incoming req see
system.mem_ctrl.wrQLenPdf::38                       0                       # What write queue length does an incoming req see
system.mem_ctrl.wrQLenPdf::39                       0                       # What write queue length does an incoming req see
system.mem_ctrl.wrQLenPdf::40                       0                       # What write queue length does an incoming req see
system.mem_ctrl.wrQLenPdf::41                       0                       # What write queue length does an incoming req see
system.mem_ctrl.wrQLenPdf::42                       0                       # What write queue length does an incoming req see
system.mem_ctrl.wrQLenPdf::43                       0                       # What write queue length does an incoming req see
system.mem_ctrl.wrQLenPdf::44                       0                       # What write queue length does an incoming req see
system.mem_ctrl.wrQLenPdf::45                       0                       # What write queue length does an incoming req see
system.mem_ctrl.wrQLenPdf::46                       0                       # What write queue length does an incoming req see
system.mem_ctrl.wrQLenPdf::47                       0                       # What write queue length does an incoming req see
system.mem_ctrl.wrQLenPdf::48                       0                       # What write queue length does an incoming req see
system.mem_ctrl.wrQLenPdf::49                       0                       # What write queue length does an incoming req see
system.mem_ctrl.wrQLenPdf::50                       0                       # What write queue length does an incoming req see
system.mem_ctrl.wrQLenPdf::51                       0                       # What write queue length does an incoming req see
system.mem_ctrl.wrQLenPdf::52                       0                       # What write queue length does an incoming req see
system.mem_ctrl.wrQLenPdf::53                       0                       # What write queue length does an incoming req see
system.mem_ctrl.wrQLenPdf::54                       0                       # What write queue length does an incoming req see
system.mem_ctrl.wrQLenPdf::55                       0                       # What write queue length does an incoming req see
system.mem_ctrl.wrQLenPdf::56                       0                       # What write queue length does an incoming req see
system.mem_ctrl.wrQLenPdf::57                       0                       # What write queue length does an incoming req see
system.mem_ctrl.wrQLenPdf::58                       0                       # What write queue length does an incoming req see
system.mem_ctrl.wrQLenPdf::59                       0                       # What write queue length does an incoming req see
system.mem_ctrl.wrQLenPdf::60                       0                       # What write queue length does an incoming req see
system.mem_ctrl.wrQLenPdf::61                       0                       # What write queue length does an incoming req see
system.mem_ctrl.wrQLenPdf::62                       0                       # What write queue length does an incoming req see
system.mem_ctrl.wrQLenPdf::63                       0                       # What write queue length does an incoming req see
system.mem_ctrl.bytesPerActivate::samples        19393                       # Bytes accessed per row activation
system.mem_ctrl.bytesPerActivate::mean     698.871552                       # Bytes accessed per row activation
system.mem_ctrl.bytesPerActivate::gmean    515.614940                       # Bytes accessed per row activation
system.mem_ctrl.bytesPerActivate::stdev    389.671938                       # Bytes accessed per row activation
system.mem_ctrl.bytesPerActivate::0-127           909      4.69%      4.69% # Bytes accessed per row activation
system.mem_ctrl.bytesPerActivate::128-255         3974     20.49%     25.18% # Bytes accessed per row activation
system.mem_ctrl.bytesPerActivate::256-383          830      4.28%     29.46% # Bytes accessed per row activation
system.mem_ctrl.bytesPerActivate::384-511          648      3.34%     32.80% # Bytes accessed per row activation
system.mem_ctrl.bytesPerActivate::512-639          950      4.90%     37.70% # Bytes accessed per row activation
system.mem_ctrl.bytesPerActivate::640-767          650      3.35%     41.05% # Bytes accessed per row activation
system.mem_ctrl.bytesPerActivate::768-895          675      3.48%     44.53% # Bytes accessed per row activation
system.mem_ctrl.bytesPerActivate::896-1023          796      4.10%     48.64% # Bytes accessed per row activation
system.mem_ctrl.bytesPerActivate::1024-1151         9961     51.36%    100.00% # Bytes accessed per row activation
system.mem_ctrl.bytesPerActivate::total         19393                       # Bytes accessed per row activation
system.mem_ctrl.rdPerTurnAround::samples         6263                       # Reads before turning the bus around for writes
system.mem_ctrl.rdPerTurnAround::mean       17.117037                       # Reads before turning the bus around for writes
system.mem_ctrl.rdPerTurnAround::gmean      16.711392                       # Reads before turning the bus around for writes
system.mem_ctrl.rdPerTurnAround::stdev      26.720609                       # Reads before turning the bus around for writes
system.mem_ctrl.rdPerTurnAround::0-127           6261     99.97%     99.97% # Reads before turning the bus around for writes
system.mem_ctrl.rdPerTurnAround::128-255            1      0.02%     99.98% # Reads before turning the bus around for writes
system.mem_ctrl.rdPerTurnAround::2048-2175            1      0.02%    100.00% # Reads before turning the bus around for writes
system.mem_ctrl.rdPerTurnAround::total           6263                       # Reads before turning the bus around for writes
system.mem_ctrl.wrPerTurnAround::samples         6263                       # Writes before turning the bus around for reads
system.mem_ctrl.wrPerTurnAround::mean       16.695833                       # Writes before turning the bus around for reads
system.mem_ctrl.wrPerTurnAround::gmean      16.669590                       # Writes before turning the bus around for reads
system.mem_ctrl.wrPerTurnAround::stdev       0.947316                       # Writes before turning the bus around for reads
system.mem_ctrl.wrPerTurnAround::16              4035     64.43%     64.43% # Writes before turning the bus around for reads
system.mem_ctrl.wrPerTurnAround::17               115      1.84%     66.26% # Writes before turning the bus around for reads
system.mem_ctrl.wrPerTurnAround::18              2096     33.47%     99.73% # Writes before turning the bus around for reads
system.mem_ctrl.wrPerTurnAround::19                17      0.27%    100.00% # Writes before turning the bus around for reads
system.mem_ctrl.wrPerTurnAround::total           6263                       # Writes before turning the bus around for reads
system.mem_ctrl.bytesReadDRAM                 6861888                       # Total number of bytes read from DRAM
system.mem_ctrl.bytesReadWrQ                        0                       # Total number of bytes read from write queue
system.mem_ctrl.bytesWritten                  6692224                       # Total number of bytes written to DRAM
system.mem_ctrl.bytesReadSys                  6861888                       # Total read bytes from the system interface side
system.mem_ctrl.bytesWrittenSys               6694016                       # Total written bytes from the system interface side
system.mem_ctrl.avgRdBW                        523.09                       # Average DRAM read bandwidth in MiByte/s
system.mem_ctrl.avgWrBW                        510.16                       # Average achieved write bandwidth in MiByte/s
system.mem_ctrl.avgRdBWSys                     523.09                       # Average system read bandwidth in MiByte/s
system.mem_ctrl.avgWrBWSys                     510.29                       # Average system write bandwidth in MiByte/s
system.mem_ctrl.peakBW                       12800.00                       # Theoretical peak bandwidth in MiByte/s
system.mem_ctrl.busUtil                          8.07                       # Data bus utilization in percentage
system.mem_ctrl.busUtilRead                      4.09                       # Data bus utilization in percentage for reads
system.mem_ctrl.busUtilWrite                     3.99                       # Data bus utilization in percentage for writes
system.mem_ctrl.totGap                    13117915000                       # Total gap between requests
system.mem_ctrl.avgGap                       61932.17                       # Average gap between requests
system.mem_ctrl.masterReadBytes::.cpu.inst        32640                       # Per-master bytes read from memory
system.mem_ctrl.masterReadBytes::.cpu.data      6829248                       # Per-master bytes read from memory
system.mem_ctrl.masterWriteBytes::.writebacks      6692224                       # Per-master bytes write to memory
system.mem_ctrl.masterReadRate::.cpu.inst 2488183.605385667179                       # Per-master bytes read from memory rate (Bytes/sec)
system.mem_ctrl.masterReadRate::.cpu.data 520601192.117428243160                       # Per-master bytes read from memory rate (Bytes/sec)
system.mem_ctrl.masterWriteRate::.writebacks 510155699.766191542149                       # Per-master bytes write to memory rate (Bytes/sec)
system.mem_ctrl.masterReadAccesses::.cpu.inst          510                       # Per-master read serviced memory accesses
system.mem_ctrl.masterReadAccesses::.cpu.data       106707                       # Per-master read serviced memory accesses
system.mem_ctrl.masterWriteAccesses::.writebacks       104594                       # Per-master write serviced memory accesses
system.mem_ctrl.masterReadTotalLat::.cpu.inst     12676000                       # Per-master read total memory access latency
system.mem_ctrl.masterReadTotalLat::.cpu.data   3080399250                       # Per-master read total memory access latency
system.mem_ctrl.masterWriteTotalLat::.writebacks 313494525500                       # Per-master write total memory access latency
system.mem_ctrl.masterReadAvgLat::.cpu.inst     24854.90                       # Per-master read average memory access latency
system.mem_ctrl.masterReadAvgLat::.cpu.data     28867.83                       # Per-master read average memory access latency
system.mem_ctrl.masterWriteAvgLat::.writebacks   2997251.52                       # Per-master write average memory access latency
system.mem_ctrl.pageHitRate                     90.83                       # Row buffer hit rate, read and write combined
system.mem_ctrl.rank1.actEnergy              69422220                       # Energy for activate commands per rank (pJ)
system.mem_ctrl.rank1.preEnergy              36891195                       # Energy for precharge commands per rank (pJ)
system.mem_ctrl.rank1.readEnergy            383253780                       # Energy for read commands per rank (pJ)
system.mem_ctrl.rank1.writeEnergy           273225240                       # Energy for write commands per rank (pJ)
system.mem_ctrl.rank1.refreshEnergy      1035053760.000000                       # Energy for refresh commands per rank (pJ)
system.mem_ctrl.rank1.actBackEnergy        3133193100                       # Energy for active background per rank (pJ)
system.mem_ctrl.rank1.preBackEnergy        2398835040                       # Energy for precharge background per rank (pJ)
system.mem_ctrl.rank1.actPowerDownEnergy            0                       # Energy for active power-down per rank (pJ)
system.mem_ctrl.rank1.prePowerDownEnergy            0                       # Energy for precharge power-down per rank (pJ)
system.mem_ctrl.rank1.selfRefreshEnergy             0                       # Energy for self refresh per rank (pJ)
system.mem_ctrl.rank1.totalEnergy          7329874335                       # Total energy per rank (pJ)
system.mem_ctrl.rank1.averagePower         558.764496                       # Core power per rank (mW)
system.mem_ctrl.rank1.totalIdleTime                 0                       # Total Idle time Per DRAM Rank
system.mem_ctrl.rank1.memoryStateTime::IDLE   6135522000                       # Time in different power states
system.mem_ctrl.rank1.memoryStateTime::REF    437840000                       # Time in different power states
system.mem_ctrl.rank1.memoryStateTime::SREF            0                       # Time in different power states
system.mem_ctrl.rank1.memoryStateTime::PRE_PDN            0                       # Time in different power states
system.mem_ctrl.rank1.memoryStateTime::ACT   6544641000                       # Time in different power states
system.mem_ctrl.rank1.memoryStateTime::ACT_PDN            0                       # Time in different power states
system.mem_ctrl.rank0.actEnergy              69058080                       # Energy for activate commands per rank (pJ)
system.mem_ctrl.rank0.preEnergy              36705240                       # Energy for precharge commands per rank (pJ)
system.mem_ctrl.rank0.readEnergy            382275600                       # Energy for read commands per rank (pJ)
system.mem_ctrl.rank0.writeEnergy           272609280                       # Energy for write commands per rank (pJ)
system.mem_ctrl.rank0.refreshEnergy      1035053760.000000                       # Energy for refresh commands per rank (pJ)
system.mem_ctrl.rank0.actBackEnergy        3119535330                       # Energy for active background per rank (pJ)
system.mem_ctrl.rank0.preBackEnergy        2410336320                       # Energy for precharge background per rank (pJ)
system.mem_ctrl.rank0.actPowerDownEnergy            0                       # Energy for active power-down per rank (pJ)
system.mem_ctrl.rank0.prePowerDownEnergy            0                       # Energy for precharge power-down per rank (pJ)
system.mem_ctrl.rank0.selfRefreshEnergy             0                       # Energy for self refresh per rank (pJ)
system.mem_ctrl.rank0.totalEnergy          7325573610                       # Total energy per rank (pJ)
system.mem_ctrl.rank0.averagePower         558.436647                       # Core power per rank (mW)
system.mem_ctrl.rank0.totalIdleTime                 0                       # Total Idle time Per DRAM Rank
system.mem_ctrl.rank0.memoryStateTime::IDLE   6166416250                       # Time in different power states
system.mem_ctrl.rank0.memoryStateTime::REF    437840000                       # Time in different power states
system.mem_ctrl.rank0.memoryStateTime::SREF            0                       # Time in different power states
system.mem_ctrl.rank0.memoryStateTime::PRE_PDN            0                       # Time in different power states
system.mem_ctrl.rank0.memoryStateTime::ACT   6513746750                       # Time in different power states
system.mem_ctrl.rank0.memoryStateTime::ACT_PDN            0                       # Time in different power states
system.mem_ctrl.power_state.pwrStateResidencyTicks::UNDEFINED  13118003000                       # Cumulative time (in ticks) in various power states
system.cache_medium.blocked_cycles::no_mshrs            0                       # number of cycles access was blocked
system.cache_medium.blocked_cycles::no_targets            0                       # number of cycles access was blocked
system.cache_medium.blocked::no_mshrs               0                       # number of cycles access was blocked
system.cache_medium.blocked::no_targets             0                       # number of cycles access was blocked
system.cache_medium.avg_blocked_cycles::no_mshrs          nan                       # average number of cycles each access was blocked
system.cache_medium.avg_blocked_cycles::no_targets          nan                       # average number of cycles each access was blocked
system.cache_medium.replacements                    0                       # number of replacements
system.cache_medium.power_state.pwrStateResidencyTicks::UNDEFINED  13118003000                       # Cumulative time (in ticks) in various power states
system.cache_medium.tags.tagsinuse                  0                       # Cycle average of tags in use
system.cache_medium.tags.total_refs                 0                       # Total number of references to valid blocks.
system.cache_medium.tags.sampled_refs               0                       # Sample count of references to valid blocks.
system.cache_medium.tags.avg_refs                 nan                       # Average number of references to valid blocks.
system.cache_medium.tags.warmup_cycle               0                       # Cycle when the warmup percentage was hit.
system.cache_medium.tags.tag_accesses               0                       # Number of tag accesses
system.cache_medium.tags.data_accesses              0                       # Number of data accesses
system.cache_medium.tags.power_state.pwrStateResidencyTicks::UNDEFINED  13118003000                       # Cumulative time (in ticks) in various power states
system.clk_domain.clock                          1000                       # Clock period in ticks
system.clk_domain.voltage_domain.voltage            1                       # Voltage in Volts
system.dcache.demand_hits::.cpu.data           752921                       # number of demand (read+write) hits
system.dcache.demand_hits::total               752921                       # number of demand (read+write) hits
system.dcache.overall_hits::.cpu.data          752921                       # number of overall hits
system.dcache.overall_hits::total              752921                       # number of overall hits
system.dcache.demand_misses::.cpu.data         106786                       # number of demand (read+write) misses
system.dcache.demand_misses::total             106786                       # number of demand (read+write) misses
system.dcache.overall_misses::.cpu.data        106786                       # number of overall misses
system.dcache.overall_misses::total            106786                       # number of overall misses
system.dcache.demand_miss_latency::.cpu.data   8445030000                       # number of demand (read+write) miss cycles
system.dcache.demand_miss_latency::total   8445030000                       # number of demand (read+write) miss cycles
system.dcache.overall_miss_latency::.cpu.data   8445030000                       # number of overall miss cycles
system.dcache.overall_miss_latency::total   8445030000                       # number of overall miss cycles
system.dcache.demand_accesses::.cpu.data       859707                       # number of demand (read+write) accesses
system.dcache.demand_accesses::total           859707                       # number of demand (read+write) accesses
system.dcache.overall_accesses::.cpu.data       859707                       # number of overall (read+write) accesses
system.dcache.overall_accesses::total          859707                       # number of overall (read+write) accesses
system.dcache.demand_miss_rate::.cpu.data     0.124212                       # miss rate for demand accesses
system.dcache.demand_miss_rate::total        0.124212                       # miss rate for demand accesses
system.dcache.overall_miss_rate::.cpu.data     0.124212                       # miss rate for overall accesses
system.dcache.overall_miss_rate::total       0.124212                       # miss rate for overall accesses
system.dcache.demand_avg_miss_latency::.cpu.data 79083.681381                       # average overall miss latency
system.dcache.demand_avg_miss_latency::total 79083.681381                       # average overall miss latency
system.dcache.overall_avg_miss_latency::.cpu.data 79083.681381                       # average overall miss latency
system.dcache.overall_avg_miss_latency::total 79083.681381                       # average overall miss latency
system.dcache.blocked_cycles::no_mshrs              0                       # number of cycles access was blocked
system.dcache.blocked_cycles::no_targets            0                       # number of cycles access was blocked
system.dcache.blocked::no_mshrs                     0                       # number of cycles access was blocked
system.dcache.blocked::no_targets                   0                       # number of cycles access was blocked
system.dcache.avg_blocked_cycles::no_mshrs          nan                       # average number of cycles each access was blocked
system.dcache.avg_blocked_cycles::no_targets          nan                       # average number of cycles each access was blocked
system.dcache.writebacks::.writebacks          106426                       # number of writebacks
system.dcache.writebacks::total                106426                       # number of writebacks
system.dcache.demand_mshr_misses::.cpu.data       106786                       # number of demand (read+write) MSHR misses
system.dcache.demand_mshr_misses::total        106786                       # number of demand (read+write) MSHR misses
system.dcache.overall_mshr_misses::.cpu.data       106786                       # number of overall MSHR misses
system.dcache.overall_mshr_misses::total       106786                       # number of overall MSHR misses
system.dcache.demand_mshr_miss_latency::.cpu.data   8231460000                       # number of demand (read+write) MSHR miss cycles
system.dcache.demand_mshr_miss_latency::total   8231460000                       # number of demand (read+write) MSHR miss cycles
system.dcache.overall_mshr_miss_latency::.cpu.data   8231460000                       # number of overall MSHR miss cycles
system.dcache.overall_mshr_miss_latency::total   8231460000                       # number of overall MSHR miss cycles
[...]
system.dcache.tags.occ_percent::total        0.999155                       # Average percentage of cache occupancy
system.dcache.tags.occ_task_id_blocks::1024          256                       # Occupied blocks per task id
system.dcache.tags.age_task_id_blocks_1024::0           82                       # Occupied blocks per task id
system.dcache.tags.age_task_id_blocks_1024::1          174                       # Occupied blocks per task id
system.dcache.tags.occ_task_id_percent::1024            1                       # Percentage of cache occupancy per task id
system.dcache.tags.tag_accesses               6836045                       # Number of tag accesses
system.dcache.tags.data_accesses              6836045                       # Number of data accesses
system.dcache.tags.power_state.pwrStateResidencyTicks::UNDEFINED  92736975000                       # Cumulative time (in ticks) in various power states
system.cache_large.blocked_cycles::no_mshrs            0                       # number of cycles access was blocked
system.cache_large.blocked_cycles::no_targets            0                       # number of cycles access was blocked
system.cache_large.blocked::no_mshrs                0                       # number of cycles access was blocked
system.cache_large.blocked::no_targets              0                       # number of cycles access was blocked
system.cache_large.avg_blocked_cycles::no_mshrs          nan                       # average number of cycles each access was blocked
system.cache_large.avg_blocked_cycles::no_targets          nan                       # average number of cycles each access was blocked
system.cache_large.replacements                     0                       # number of replacements
system.cache_large.power_state.pwrStateResidencyTicks::UNDEFINED  92736975000                       # Cumulative time (in ticks) in various power states
system.cache_large.tags.tagsinuse                   0                       # Cycle average of tags in use
system.cache_large.tags.total_refs                  0                       # Total number of references to valid blocks.
system.cache_large.tags.sampled_refs                0                       # Sample count of references to valid blocks.
system.cache_large.tags.avg_refs                  nan                       # Average number of references to valid blocks.
system.cache_large.tags.warmup_cycle                0                       # Cycle when the warmup percentage was hit.
system.cache_large.tags.tag_accesses                0                       # Number of tag accesses
system.cache_large.tags.data_accesses               0                       # Number of data accesses
system.cache_large.tags.power_state.pwrStateResidencyTicks::UNDEFINED  92736975000                       # Cumulative time (in ticks) in various power states
system.l2cache.demand_hits::.cpu.inst              62                       # number of demand (read+write) hits
system.l2cache.demand_hits::.cpu.data              67                       # number of demand (read+write) hits
system.l2cache.demand_hits::total                 129                       # number of demand (read+write) hits
system.l2cache.overall_hits::.cpu.inst             62                       # number of overall hits
system.l2cache.overall_hits::.cpu.data             67                       # number of overall hits
system.l2cache.overall_hits::total                129                       # number of overall hits
system.l2cache.demand_misses::.cpu.inst           577                       # number of demand (read+write) misses
system.l2cache.demand_misses::.cpu.data        758891                       # number of demand (read+write) misses
system.l2cache.demand_misses::total            759468                       # number of demand (read+write) misses
system.l2cache.overall_misses::.cpu.inst          577                       # number of overall misses
system.l2cache.overall_misses::.cpu.data       758891                       # number of overall misses
system.l2cache.overall_misses::total           759468                       # number of overall misses
system.l2cache.demand_miss_latency::.cpu.inst     36149000                       # number of demand (read+write) miss cycles
system.l2cache.demand_miss_latency::.cpu.data  55555910000                       # number of demand (read+write) miss cycles
system.l2cache.demand_miss_latency::total  55592059000                       # number of demand (read+write) miss cycles
system.l2cache.overall_miss_latency::.cpu.inst     36149000                       # number of overall miss cycles
system.l2cache.overall_miss_latency::.cpu.data  55555910000                       # number of overall miss cycles
system.l2cache.overall_miss_latency::total  55592059000                       # number of overall miss cycles
system.l2cache.demand_accesses::.cpu.inst          639                       # number of demand (read+write) accesses
system.l2cache.demand_accesses::.cpu.data       758958                       # number of demand (read+write) accesses
system.l2cache.demand_accesses::total          759597                       # number of demand (read+write) accesses
system.l2cache.overall_accesses::.cpu.inst          639                       # number of overall (read+write) accesses
system.l2cache.overall_accesses::.cpu.data       758958                       # number of overall (read+write) accesses
system.l2cache.overall_accesses::total         759597                       # number of overall (read+write) accesses
system.l2cache.demand_miss_rate::.cpu.inst     0.902973                       # miss rate for demand accesses
system.l2cache.demand_miss_rate::.cpu.data     0.999912                       # miss rate for demand accesses
system.l2cache.demand_miss_rate::total       0.999830                       # miss rate for demand accesses
system.l2cache.overall_miss_rate::.cpu.inst     0.902973                       # miss rate for overall accesses
system.l2cache.overall_miss_rate::.cpu.data     0.999912                       # miss rate for overall accesses
system.l2cache.overall_miss_rate::total      0.999830                       # miss rate for overall accesses
system.l2cache.demand_avg_miss_latency::.cpu.inst 62649.913345                       # average overall miss latency
system.l2cache.demand_avg_miss_latency::.cpu.data 73206.705574                       # average overall miss latency
system.l2cache.demand_avg_miss_latency::total 73198.685132                       # average overall miss latency
system.l2cache.overall_avg_miss_latency::.cpu.inst 62649.913345                       # average overall miss latency
system.l2cache.overall_avg_miss_latency::.cpu.data 73206.705574                       # average overall miss latency
system.l2cache.overall_avg_miss_latency::total 73198.685132                       # average overall miss latency
system.l2cache.blocked_cycles::no_mshrs             0                       # number of cycles access was blocked
system.l2cache.blocked_cycles::no_targets            0                       # number of cycles access was blocked
system.l2cache.blocked::no_mshrs                    0                       # number of cycles access was blocked
system.l2cache.blocked::no_targets                  0                       # number of cycles access was blocked
system.l2cache.avg_blocked_cycles::no_mshrs          nan                       # average number of cycles each access was blocked
system.l2cache.avg_blocked_cycles::no_targets          nan                       # average number of cycles each access was blocked
system.l2cache.writebacks::.writebacks         758319                       # number of writebacks
system.l2cache.writebacks::total               758319                       # number of writebacks
system.l2cache.demand_mshr_misses::.cpu.inst          577                       # number of demand (read+write) MSHR misses
system.l2cache.demand_mshr_misses::.cpu.data       758891                       # number of demand (read+write) MSHR misses
system.l2cache.demand_mshr_misses::total       759468                       # number of demand (read+write) MSHR misses
system.l2cache.overall_mshr_misses::.cpu.inst          577                       # number of overall MSHR misses
system.l2cache.overall_mshr_misses::.cpu.data       758891                       # number of overall MSHR misses
system.l2cache.overall_mshr_misses::total       759468                       # number of overall MSHR misses
system.l2cache.demand_mshr_miss_latency::.cpu.inst     34995000                       # number of demand (read+write) MSHR miss cycles
system.l2cache.demand_mshr_miss_latency::.cpu.data  54038128000                       # number of demand (read+write) MSHR miss cycles
system.l2cache.demand_mshr_miss_latency::total  54073123000                       # number of demand (read+write) MSHR miss cycles
system.l2cache.overall_mshr_miss_latency::.cpu.inst     34995000                       # number of overall MSHR miss cycles
system.l2cache.overall_mshr_miss_latency::.cpu.data  54038128000                       # number of overall MSHR miss cycles
system.l2cache.overall_mshr_miss_latency::total  54073123000                       # number of overall MSHR miss cycles
system.l2cache.demand_mshr_miss_rate::.cpu.inst     0.902973                       # mshr miss rate for demand accesses
system.l2cache.demand_mshr_miss_rate::.cpu.data     0.999912                       # mshr miss rate for demand accesses
system.l2cache.demand_mshr_miss_rate::total     0.999830                       # mshr miss rate for demand accesses
system.l2cache.overall_mshr_miss_rate::.cpu.inst     0.902973                       # mshr miss rate for overall accesses
system.l2cache.overall_mshr_miss_rate::.cpu.data     0.999912                       # mshr miss rate for overall accesses
system.l2cache.overall_mshr_miss_rate::total     0.999830                       # mshr miss rate for overall accesses
system.l2cache.demand_avg_mshr_miss_latency::.cpu.inst 60649.913345                       # average overall mshr miss latency
system.l2cache.demand_avg_mshr_miss_latency::.cpu.data 71206.705574                       # average overall mshr miss latency
system.l2cache.demand_avg_mshr_miss_latency::total 71198.685132                       # average overall mshr miss latency
system.l2cache.overall_avg_mshr_miss_latency::.cpu.inst 60649.913345                       # average overall mshr miss latency
system.l2cache.overall_avg_mshr_miss_latency::.cpu.data 71206.705574                       # average overall mshr miss latency
system.l2cache.overall_avg_mshr_miss_latency::total 71198.685132                       # average overall mshr miss latency
system.l2cache.replacements                    759101                       # number of replacements
system.l2cache.ReadReq_hits::.cpu.inst             62                       # number of ReadReq hits
system.l2cache.ReadReq_hits::.cpu.data             67                       # number of ReadReq hits
system.l2cache.ReadReq_hits::total                129                       # number of ReadReq hits
system.l2cache.ReadReq_misses::.cpu.inst          577                       # number of ReadReq misses
system.l2cache.ReadReq_misses::.cpu.data       758891                       # number of ReadReq misses
system.l2cache.ReadReq_misses::total           759468                       # number of ReadReq misses
system.l2cache.ReadReq_miss_latency::.cpu.inst     36149000                       # number of ReadReq miss cycles
system.l2cache.ReadReq_miss_latency::.cpu.data  55555910000                       # number of ReadReq miss cycles
system.l2cache.ReadReq_miss_latency::total  55592059000                       # number of ReadReq miss cycles
system.l2cache.ReadReq_accesses::.cpu.inst          639                       # number of ReadReq accesses(hits+misses)
system.l2cache.ReadReq_accesses::.cpu.data       758958                       # number of ReadReq accesses(hits+misses)
system.l2cache.ReadReq_accesses::total         759597                       # number of ReadReq accesses(hits+misses)
system.l2cache.ReadReq_miss_rate::.cpu.inst     0.902973                       # miss rate for ReadReq accesses
system.l2cache.ReadReq_miss_rate::.cpu.data     0.999912                       # miss rate for ReadReq accesses
system.l2cache.ReadReq_miss_rate::total      0.999830                       # miss rate for ReadReq accesses
system.l2cache.ReadReq_avg_miss_latency::.cpu.inst 62649.913345                       # average ReadReq miss latency
system.l2cache.ReadReq_avg_miss_latency::.cpu.data 73206.705574                       # average ReadReq miss latency
system.l2cache.ReadReq_avg_miss_latency::total 73198.685132                       # average ReadReq miss latency
system.l2cache.ReadReq_mshr_misses::.cpu.inst          577                       # number of ReadReq MSHR misses
system.l2cache.ReadReq_mshr_misses::.cpu.data       758891                       # number of ReadReq MSHR misses
system.l2cache.ReadReq_mshr_misses::total       759468                       # number of ReadReq MSHR misses
system.l2cache.ReadReq_mshr_miss_latency::.cpu.inst     34995000                       # number of ReadReq MSHR miss cycles
system.l2cache.ReadReq_mshr_miss_latency::.cpu.data  54038128000                       # number of ReadReq MSHR miss cycles
system.l2cache.ReadReq_mshr_miss_latency::total  54073123000                       # number of ReadReq MSHR miss cycles
system.l2cache.ReadReq_mshr_miss_rate::.cpu.inst     0.902973                       # mshr miss rate for ReadReq accesses
system.l2cache.ReadReq_mshr_miss_rate::.cpu.data     0.999912                       # mshr miss rate for ReadReq accesses
system.l2cache.ReadReq_mshr_miss_rate::total     0.999830                       # mshr miss rate for ReadReq accesses
system.l2cache.ReadReq_avg_mshr_miss_latency::.cpu.inst 60649.913345                       # average ReadReq mshr miss latency
system.l2cache.ReadReq_avg_mshr_miss_latency::.cpu.data 71206.705574                       # average ReadReq mshr miss latency
system.l2cache.ReadReq_avg_mshr_miss_latency::total 71198.685132                       # average ReadReq mshr miss latency
system.l2cache.WritebackDirty_hits::.writebacks       758599                       # number of WritebackDirty hits
system.l2cache.WritebackDirty_hits::total       758599                       # number of WritebackDirty hits
system.l2cache.WritebackDirty_accesses::.writebacks       758599                       # number of WritebackDirty accesses(hits+misses)
system.l2cache.WritebackDirty_accesses::total       758599                       # number of WritebackDirty accesses(hits+misses)
system.l2cache.power_state.pwrStateResidencyTicks::UNDEFINED  92736975000                       # Cumulative time (in ticks) in various power states
system.l2cache.tags.tagsinuse              511.627096                       # Cycle average of tags in use
system.l2cache.tags.total_refs                1518196                       # Total number of references to valid blocks.
system.l2cache.tags.sampled_refs               759613                       # Sample count of references to valid blocks.
system.l2cache.tags.avg_refs                 1.998644                       # Average number of references to valid blocks.
system.l2cache.tags.warmup_cycle                78000                       # Cycle when the warmup percentage was hit.
system.l2cache.tags.occ_blocks::.writebacks     0.053093                       # Average occupied blocks per requestor
system.l2cache.tags.occ_blocks::.cpu.inst     0.313117                       # Average occupied blocks per requestor
system.l2cache.tags.occ_blocks::.cpu.data   511.260886                       # Average occupied blocks per requestor
system.l2cache.tags.occ_percent::.writebacks     0.000104                       # Average percentage of cache occupancy
system.l2cache.tags.occ_percent::.cpu.inst     0.000612                       # Average percentage of cache occupancy
system.l2cache.tags.occ_percent::.cpu.data     0.998556                       # Average percentage of cache occupancy
system.l2cache.tags.occ_percent::total       0.999272                       # Average percentage of cache occupancy
system.l2cache.tags.occ_task_id_blocks::1024          512                       # Occupied blocks per task id
system.l2cache.tags.age_task_id_blocks_1024::0           82                       # Occupied blocks per task id
system.l2cache.tags.age_task_id_blocks_1024::1          430                       # Occupied blocks per task id
system.l2cache.tags.occ_task_id_percent::1024            1                       # Percentage of cache occupancy per task id
system.l2cache.tags.tag_accesses              2277809                       # Number of tag accesses
system.l2cache.tags.data_accesses             2277809                       # Number of data accesses
system.l2cache.tags.power_state.pwrStateResidencyTicks::UNDEFINED  92736975000                       # Cumulative time (in ticks) in various power states
system.l2bar.trans_dist::ReadReq               759597                       # Transaction distribution
system.l2bar.trans_dist::ReadResp              759597                       # Transaction distribution
system.l2bar.trans_dist::WritebackDirty        758599                       # Transaction distribution
system.l2bar.pkt_count_system.dcache.mem_side::system.l2cache.cpu_side      2276515                       # Packet count per connected master and slave (bytes)
system.l2bar.pkt_count_system.icache.mem_side::system.l2cache.cpu_side         1278                       # Packet count per connected master and slave (bytes)
system.l2bar.pkt_count::total                 2277793                       # Packet count per connected master and slave (bytes)
system.l2bar.pkt_size_system.dcache.mem_side::system.l2cache.cpu_side     97123648                       # Cumulative packet size per connected master and slave (bytes)
system.l2bar.pkt_size_system.icache.mem_side::system.l2cache.cpu_side        40896                       # Cumulative packet size per connected master and slave (bytes)
system.l2bar.pkt_size::total                 97164544                       # Cumulative packet size per connected master and slave (bytes)
system.l2bar.respLayer1.occupancy             3195000                       # Layer occupancy (ticks)
system.l2bar.respLayer1.utilization               0.0                       # Layer utilization (%)
system.l2bar.reqLayer0.occupancy           4552592000                       # Layer occupancy (ticks)
system.l2bar.reqLayer0.utilization                4.9                       # Layer utilization (%)
system.l2bar.respLayer0.occupancy          3794790000                       # Layer occupancy (ticks)
system.l2bar.respLayer0.utilization               4.1                       # Layer utilization (%)
system.l2bar.power_state.pwrStateResidencyTicks::UNDEFINED  92736975000                       # Cumulative time (in ticks) in various power states
system.cpu.dtb.walker.power_state.pwrStateResidencyTicks::UNDEFINED  92736975000                       # Cumulative time (in ticks) in various power states
system.cpu.interrupts.clk_domain.clock          16000                       # Clock period in ticks
system.cpu.itb.walker.power_state.pwrStateResidencyTicks::UNDEFINED  92736975000                       # Cumulative time (in ticks) in various power states
system.cpu.power_state.numTransitions               1                       # Number of power state transitions
system.cpu.power_state.pwrStateResidencyTicks::ON  92736975000                       # Cumulative time (in ticks) in various power states

---------- End Simulation Statistics   ----------
