
---------- Begin Simulation Statistics ----------
final_tick                                 3490530000                       # Number of ticks from beginning of simulation (restored from checkpoints and never reset)
host_inst_rate                                 109492                       # Simulator instruction rate (inst/s)
host_mem_usage                               34224284                       # Number of bytes of host memory used
host_op_rate                                   194470                       # Simulator op (including micro ops) rate (op/s)
host_seconds                                     9.14                       # Real time elapsed on the host
host_tick_rate                              382041749                       # Simulator tick rate (ticks/s)
sim_freq                                 1000000000000                       # Frequency of simulated ticks
sim_insts                                     1000343                       # Number of instructions simulated
sim_ops                                       1776769                       # Number of ops (including micro ops) simulated
sim_seconds                                  0.003491                       # Number of seconds simulated
sim_ticks                                  3490530000                       # Number of ticks simulated
system.cpu.Branches                            188704                       # Number of branches fetched
system.cpu.committedInsts                     1000343                       # Number of instructions committed
system.cpu.committedOps                       1776769                       # Number of ops (including micro ops) committed
system.cpu.dtb.rdAccesses                      203410                       # TLB accesses on read requests
system.cpu.dtb.rdMisses                            21                       # TLB misses on read requests
system.cpu.dtb.wrAccesses                       99845                       # TLB accesses on write requests
system.cpu.dtb.wrMisses                            37                       # TLB misses on write requests
system.cpu.idle_fraction                            0                       # Percentage of idle cycles
system.cpu.itb.rdAccesses                           0                       # TLB accesses on read requests
system.cpu.itb.rdMisses                             0                       # TLB misses on read requests
system.cpu.itb.wrAccesses                     1268896                       # TLB accesses on write requests
system.cpu.itb.wrMisses                            83                       # TLB misses on write requests
system.cpu.not_idle_fraction                        1                       # Percentage of non-idle cycles
system.cpu.numCycles                          3490519                       # number of cpu cycles simulated
system.cpu.numWorkItemsCompleted                    0                       # number of work items this cpu completed
system.cpu.numWorkItemsStarted                      0                       # number of work items this cpu started
system.cpu.num_busy_cycles                    3490519                       # Number of busy cycles
system.cpu.num_cc_register_reads              1305476                       # number of times the CC registers were read
system.cpu.num_cc_register_writes             1000814                       # number of times the CC registers were written
system.cpu.num_conditional_control_insts       166993                       # number of instructions that are conditional controls
system.cpu.num_fp_alu_accesses                  11990                       # Number of float alu accesses
system.cpu.num_fp_insts                         11990                       # number of float instructions
system.cpu.num_fp_register_reads                15122                       # number of times the floating registers were read
system.cpu.num_fp_register_writes                5614                       # number of times the floating registers were written
system.cpu.num_func_calls                       10910                       # number of times a function call or return occured
system.cpu.num_idle_cycles                          0                       # Number of idle cycles
system.cpu.num_int_alu_accesses               1762389                       # Number of integer alu accesses
system.cpu.num_int_insts                      1762389                       # number of integer instructions
system.cpu.num_int_register_reads             3293068                       # number of times the integer registers were read
system.cpu.num_int_register_writes            1489525                       # number of times the integer registers were written
system.cpu.num_load_insts                      203325                       # Number of load instructions
system.cpu.num_mem_refs                        303092                       # number of memory refs
system.cpu.num_store_insts                      99767                       # Number of store instructions
system.cpu.num_vec_alu_accesses                     0                       # Number of vector alu accesses
system.cpu.num_vec_insts                            0                       # number of vector instructions
system.cpu.num_vec_register_reads                   0                       # number of times the vector registers were read
system.cpu.num_vec_register_writes                  0                       # number of times the vector registers were written
system.cpu.op_class::No_OpClass                  7702      0.43%      0.43% # Class of executed instruction
system.cpu.op_class::IntAlu                   1447922     81.49%     81.92% # Class of executed instruction
system.cpu.op_class::IntMult                    11298      0.64%     82.56% # Class of executed instruction
system.cpu.op_class::IntDiv                      1859      0.10%     82.67% # Class of executed instruction
system.cpu.op_class::FloatAdd                     597      0.03%     82.70% # Class of executed instruction
system.cpu.op_class::FloatCmp                       0      0.00%     82.70% # Class of executed instruction
system.cpu.op_class::FloatCvt                       0      0.00%     82.70% # Class of executed instruction
system.cpu.op_class::FloatMult                      0      0.00%     82.70% # Class of executed instruction
system.cpu.op_class::FloatMultAcc                   0      0.00%     82.70% # Class of executed instruction
system.cpu.op_class::FloatDiv                       0      0.00%     82.70% # Class of executed instruction
system.cpu.op_class::FloatMisc                      0      0.00%     82.70% # Class of executed instruction
system.cpu.op_class::FloatSqrt                      0      0.00%     82.70% # Class of executed instruction
system.cpu.op_class::SimdAdd                       52      0.00%     82.70% # Class of executed instruction
system.cpu.op_class::SimdAddAcc                     0      0.00%     82.70% # Class of executed instruction
system.cpu.op_class::SimdAlu                     1034      0.06%     82.76% # Class of executed instruction
system.cpu.op_class::SimdCmp                       18      0.00%     82.76% # Class of executed instruction
system.cpu.op_class::SimdCvt                      534      0.03%     82.79% # Class of executed instruction
system.cpu.op_class::SimdMisc                    2181      0.12%     82.91% # Class of executed instruction
system.cpu.op_class::SimdMult                       0      0.00%     82.91% # Class of executed instruction
system.cpu.op_class::SimdMultAcc                    0      0.00%     82.91% # Class of executed instruction
system.cpu.op_class::SimdShift                     78      0.00%     82.92% # Class of executed instruction
system.cpu.op_class::SimdShiftAcc                   0      0.00%     82.92% # Class of executed instruction
system.cpu.op_class::SimdDiv                        0      0.00%     82.92% # Class of executed instruction
system.cpu.op_class::SimdSqrt                       0      0.00%     82.92% # Class of executed instruction
system.cpu.op_class::SimdFloatAdd                 207      0.01%     82.93% # Class of executed instruction
system.cpu.op_class::SimdFloatAlu                   0      0.00%     82.93% # Class of executed instruction
system.cpu.op_class::SimdFloatCmp                   0      0.00%     82.93% # Class of executed instruction
system.cpu.op_class::SimdFloatCvt                 207      0.01%     82.94% # Class of executed instruction
system.cpu.op_class::SimdFloatDiv                   0      0.00%     82.94% # Class of executed instruction
system.cpu.op_class::SimdFloatMisc                  0      0.00%     82.94% # Class of executed instruction
system.cpu.op_class::SimdFloatMult                  0      0.00%     82.94% # Class of executed instruction
system.cpu.op_class::SimdFloatMultAcc               0      0.00%     82.94% # Class of executed instruction
system.cpu.op_class::SimdFloatSqrt                  0      0.00%     82.94% # Class of executed instruction
system.cpu.op_class::SimdReduceAdd                  0      0.00%     82.94% # Class of executed instruction
system.cpu.op_class::SimdReduceAlu                  0      0.00%     82.94% # Class of executed instruction
system.cpu.op_class::SimdReduceCmp                  0      0.00%     82.94% # Class of executed instruction
system.cpu.op_class::SimdFloatReduceAdd             0      0.00%     82.94% # Class of executed instruction
system.cpu.op_class::SimdFloatReduceCmp             0      0.00%     82.94% # Class of executed instruction
system.cpu.op_class::SimdAes                        0      0.00%     82.94% # Class of executed instruction
system.cpu.op_class::SimdAesMix                     0      0.00%     82.94% # Class of executed instruction
system.cpu.op_class::SimdSha1Hash                   0      0.00%     82.94% # Class of executed instruction
system.cpu.op_class::SimdSha1Hash2                  0      0.00%     82.94% # Class of executed instruction
system.cpu.op_class::SimdSha256Hash                 0      0.00%     82.94% # Class of executed instruction
system.cpu.op_class::SimdSha256Hash2                0      0.00%     82.94% # Class of executed instruction
system.cpu.op_class::SimdShaSigma2                  0      0.00%     82.94% # Class of executed instruction
system.cpu.op_class::SimdShaSigma3                  0      0.00%     82.94% # Class of executed instruction
system.cpu.op_class::SimdPredAlu                    0      0.00%     82.94% # Class of executed instruction
system.cpu.op_class::MemRead                   202370     11.39%     94.33% # Class of executed instruction
system.cpu.op_class::MemWrite                   94249      5.30%     99.64% # Class of executed instruction
system.cpu.op_class::FloatMemRead                 955      0.05%     99.69% # Class of executed instruction
system.cpu.op_class::FloatMemWrite               5518      0.31%    100.00% # Class of executed instruction
system.cpu.op_class::IprAccess                      0      0.00%    100.00% # Class of executed instruction
system.cpu.op_class::InstPrefetch                   0      0.00%    100.00% # Class of executed instruction
system.cpu.op_class::total                    1776781                       # Class of executed instruction
system.cpu.workload.numSyscalls                    70                       # Number of system calls
system.dynamic_cache.flushTicks                     0                       # Ticks taken to flush
system.dynamic_cache.numFlushes                     0                       # Number of Flushes Taken
system.cache_small.demand_hits::.cpu.inst         3573                       # number of demand (read+write) hits
system.cache_small.demand_hits::.cpu.data         1375                       # number of demand (read+write) hits
system.cache_small.demand_hits::total            4948                       # number of demand (read+write) hits
system.cache_small.overall_hits::.cpu.inst         3573                       # number of overall hits
system.cache_small.overall_hits::.cpu.data         1375                       # number of overall hits
system.cache_small.overall_hits::total           4948                       # number of overall hits
system.cache_small.demand_misses::.cpu.inst         1747                       # number of demand (read+write) misses
system.cache_small.demand_misses::.cpu.data         1127                       # number of demand (read+write) misses
system.cache_small.demand_misses::total          2874                       # number of demand (read+write) misses
system.cache_small.overall_misses::.cpu.inst         1747                       # number of overall misses
system.cache_small.overall_misses::.cpu.data         1127                       # number of overall misses
system.cache_small.overall_misses::total         2874                       # number of overall misses
system.cache_small.demand_miss_latency::.cpu.inst    101471000                       # number of demand (read+write) miss cycles
system.cache_small.demand_miss_latency::.cpu.data     66896000                       # number of demand (read+write) miss cycles
system.cache_small.demand_miss_latency::total    168367000                       # number of demand (read+write) miss cycles
system.cache_small.overall_miss_latency::.cpu.inst    101471000                       # number of overall miss cycles
system.cache_small.overall_miss_latency::.cpu.data     66896000                       # number of overall miss cycles
system.cache_small.overall_miss_latency::total    168367000                       # number of overall miss cycles
system.cache_small.demand_accesses::.cpu.inst         5320                       # number of demand (read+write) accesses
system.cache_small.demand_accesses::.cpu.data         2502                       # number of demand (read+write) accesses
system.cache_small.demand_accesses::total         7822                       # number of demand (read+write) accesses
system.cache_small.overall_accesses::.cpu.inst         5320                       # number of overall (read+write) accesses
system.cache_small.overall_accesses::.cpu.data         2502                       # number of overall (read+write) accesses
system.cache_small.overall_accesses::total         7822                       # number of overall (read+write) accesses
system.cache_small.demand_miss_rate::.cpu.inst     0.328383                       # miss rate for demand accesses
system.cache_small.demand_miss_rate::.cpu.data     0.450440                       # miss rate for demand accesses
system.cache_small.demand_miss_rate::total     0.367425                       # miss rate for demand accesses
system.cache_small.overall_miss_rate::.cpu.inst     0.328383                       # miss rate for overall accesses
system.cache_small.overall_miss_rate::.cpu.data     0.450440                       # miss rate for overall accesses
system.cache_small.overall_miss_rate::total     0.367425                       # miss rate for overall accesses
system.cache_small.demand_avg_miss_latency::.cpu.inst 58082.999428                       # average overall miss latency
system.cache_small.demand_avg_miss_latency::.cpu.data 59357.586513                       # average overall miss latency
system.cache_small.demand_avg_miss_latency::total 58582.811413                       # average overall miss latency
system.cache_small.overall_avg_miss_latency::.cpu.inst 58082.999428                       # average overall miss latency
system.cache_small.overall_avg_miss_latency::.cpu.data 59357.586513                       # average overall miss latency
system.cache_small.overall_avg_miss_latency::total 58582.811413                       # average overall miss latency
system.cache_small.blocked_cycles::no_mshrs            0                       # number of cycles access was blocked
system.cache_small.blocked_cycles::no_targets            0                       # number of cycles access was blocked
system.cache_small.blocked::no_mshrs                0                       # number of cycles access was blocked
system.cache_small.blocked::no_targets              0                       # number of cycles access was blocked
system.cache_small.avg_blocked_cycles::no_mshrs          nan                       # average number of cycles each access was blocked
system.cache_small.avg_blocked_cycles::no_targets          nan                       # average number of cycles each access was blocked
system.cache_small.writebacks::.writebacks            8                       # number of writebacks
system.cache_small.writebacks::total                8                       # number of writebacks
system.cache_small.demand_mshr_misses::.cpu.inst         1747                       # number of demand (read+write) MSHR misses
system.cache_small.demand_mshr_misses::.cpu.data         1127                       # number of demand (read+write) MSHR misses
system.cache_small.demand_mshr_misses::total         2874                       # number of demand (read+write) MSHR misses
system.cache_small.overall_mshr_misses::.cpu.inst         1747                       # number of overall MSHR misses
system.cache_small.overall_mshr_misses::.cpu.data         1127                       # number of overall MSHR misses
system.cache_small.overall_mshr_misses::total         2874                       # number of overall MSHR misses
system.cache_small.demand_mshr_miss_latency::.cpu.inst     97977000                       # number of demand (read+write) MSHR miss cycles
system.cache_small.demand_mshr_miss_latency::.cpu.data     64642000                       # number of demand (read+write) MSHR miss cycles
system.cache_small.demand_mshr_miss_latency::total    162619000                       # number of demand (read+write) MSHR miss cycles
system.cache_small.overall_mshr_miss_latency::.cpu.inst     97977000                       # number of overall MSHR miss cycles
system.cache_small.overall_mshr_miss_latency::.cpu.data     64642000                       # number of overall MSHR miss cycles
system.cache_small.overall_mshr_miss_latency::total    162619000                       # number of overall MSHR miss cycles
system.cache_small.demand_mshr_miss_rate::.cpu.inst     0.328383                       # mshr miss rate for demand accesses
system.cache_small.demand_mshr_miss_rate::.cpu.data     0.450440                       # mshr miss rate for demand accesses
system.cache_small.demand_mshr_miss_rate::total     0.367425                       # mshr miss rate for demand accesses
system.cache_small.overall_mshr_miss_rate::.cpu.inst     0.328383                       # mshr miss rate for overall accesses
system.cache_small.overall_mshr_miss_rate::.cpu.data     0.450440                       # mshr miss rate for overall accesses
system.cache_small.overall_mshr_miss_rate::total     0.367425                       # mshr miss rate for overall accesses
system.cache_small.demand_avg_mshr_miss_latency::.cpu.inst 56082.999428                       # average overall mshr miss latency
system.cache_small.demand_avg_mshr_miss_latency::.cpu.data 57357.586513                       # average overall mshr miss latency
system.cache_small.demand_avg_mshr_miss_latency::total 56582.811413                       # average overall mshr miss latency
system.cache_small.overall_avg_mshr_miss_latency::.cpu.inst 56082.999428                       # average overall mshr miss latency
system.cache_small.overall_avg_mshr_miss_latency::.cpu.data 57357.586513                       # average overall mshr miss latency
system.cache_small.overall_avg_mshr_miss_latency::total 56582.811413                       # average overall mshr miss latency
system.cache_small.replacements                    91                       # number of replacements
system.cache_small.ReadReq_hits::.cpu.inst         3573                       # number of ReadReq hits
system.cache_small.ReadReq_hits::.cpu.data         1375                       # number of ReadReq hits
system.cache_small.ReadReq_hits::total           4948                       # number of ReadReq hits
system.cache_small.ReadReq_misses::.cpu.inst         1747                       # number of ReadReq misses
system.cache_small.ReadReq_misses::.cpu.data         1127                       # number of ReadReq misses
system.cache_small.ReadReq_misses::total         2874                       # number of ReadReq misses
system.cache_small.ReadReq_miss_latency::.cpu.inst    101471000                       # number of ReadReq miss cycles
system.cache_small.ReadReq_miss_latency::.cpu.data     66896000                       # number of ReadReq miss cycles
system.cache_small.ReadReq_miss_latency::total    168367000                       # number of ReadReq miss cycles
system.cache_small.ReadReq_accesses::.cpu.inst         5320                       # number of ReadReq accesses(hits+misses)
system.cache_small.ReadReq_accesses::.cpu.data         2502                       # number of ReadReq accesses(hits+misses)
system.cache_small.ReadReq_accesses::total         7822                       # number of ReadReq accesses(hits+misses)
system.cache_small.ReadReq_miss_rate::.cpu.inst     0.328383                       # miss rate for ReadReq accesses
system.cache_small.ReadReq_miss_rate::.cpu.data     0.450440                       # miss rate for ReadReq accesses
system.cache_small.ReadReq_miss_rate::total     0.367425                       # miss rate for ReadReq accesses
system.cache_small.ReadReq_avg_miss_latency::.cpu.inst 58082.999428                       # average ReadReq miss latency
system.cache_small.ReadReq_avg_miss_latency::.cpu.data 59357.586513                       # average ReadReq miss latency
system.cache_small.ReadReq_avg_miss_latency::total 58582.811413                       # average ReadReq miss latency
system.cache_small.ReadReq_mshr_misses::.cpu.inst         1747                       # number of ReadReq MSHR misses
system.cache_small.ReadReq_mshr_misses::.cpu.data         1127                       # number of ReadReq MSHR misses
system.cache_small.ReadReq_mshr_misses::total         2874                       # number of ReadReq MSHR misses
system.cache_small.ReadReq_mshr_miss_latency::.cpu.inst     97977000                       # number of ReadReq MSHR miss cycles
system.cache_small.ReadReq_mshr_miss_latency::.cpu.data     64642000                       # number of ReadReq MSHR miss cycles
system.cache_small.ReadReq_mshr_miss_latency::total    162619000                       # number of ReadReq MSHR miss cycles
system.cache_small.ReadReq_mshr_miss_rate::.cpu.inst     0.328383                       # mshr miss rate for ReadReq accesses
system.cache_small.ReadReq_mshr_miss_rate::.cpu.data     0.450440                       # mshr miss rate for ReadReq accesses
system.cache_small.ReadReq_mshr_miss_rate::total     0.367425                       # mshr miss rate for ReadReq accesses
system.cache_small.ReadReq_avg_mshr_miss_latency::.cpu.inst 56082.999428                       # average ReadReq mshr miss latency
system.cache_small.ReadReq_avg_mshr_miss_latency::.cpu.data 57357.586513                       # average ReadReq mshr miss latency
system.cache_small.ReadReq_avg_mshr_miss_latency::total 56582.811413                       # average ReadReq mshr miss latency
system.cache_small.WritebackDirty_hits::.writebacks         1672                       # number of WritebackDirty hits
system.cache_small.WritebackDirty_hits::total         1672                       # number of WritebackDirty hits
system.cache_small.WritebackDirty_accesses::.writebacks         1672                       # number of WritebackDirty accesses(hits+misses)
system.cache_small.WritebackDirty_accesses::total         1672                       # number of WritebackDirty accesses(hits+misses)
system.cache_small.power_state.pwrStateResidencyTicks::UNDEFINED   3490530000                       # Cumulative time (in ticks) in various power states
system.cache_small.tags.tagsinuse         2184.398157                       # Cycle average of tags in use
system.cache_small.tags.total_refs                715                       # Total number of references to valid blocks.
system.cache_small.tags.sampled_refs               91                       # Sample count of references to valid blocks.
system.cache_small.tags.avg_refs             7.857143                       # Average number of references to valid blocks.
system.cache_small.tags.warmup_cycle            76000                       # Cycle when the warmup percentage was hit.
system.cache_small.tags.occ_blocks::.writebacks     2.853333                       # Average occupied blocks per requestor
system.cache_small.tags.occ_blocks::.cpu.inst  1255.553941                       # Average occupied blocks per requestor
system.cache_small.tags.occ_blocks::.cpu.data   925.990883                       # Average occupied blocks per requestor
system.cache_small.tags.occ_percent::.writebacks     0.000174                       # Average percentage of cache occupancy
system.cache_small.tags.occ_percent::.cpu.inst     0.076633                       # Average percentage of cache occupancy
system.cache_small.tags.occ_percent::.cpu.data     0.056518                       # Average percentage of cache occupancy
system.cache_small.tags.occ_percent::total     0.133325                       # Average percentage of cache occupancy
system.cache_small.tags.occ_task_id_blocks::1024         2791                       # Occupied blocks per task id
system.cache_small.tags.age_task_id_blocks_1024::1           60                       # Occupied blocks per task id
system.cache_small.tags.age_task_id_blocks_1024::2           29                       # Occupied blocks per task id
system.cache_small.tags.age_task_id_blocks_1024::3         2702                       # Occupied blocks per task id
system.cache_small.tags.occ_task_id_percent::1024     0.170349                       # Percentage of cache occupancy per task id
system.cache_small.tags.tag_accesses            12376                       # Number of tag accesses
system.cache_small.tags.data_accesses           12376                       # Number of data accesses
system.cache_small.tags.power_state.pwrStateResidencyTicks::UNDEFINED   3490530000                       # Cumulative time (in ticks) in various power states
system.icache.demand_hits::.cpu.inst          1262200                       # number of demand (read+write) hits
system.icache.demand_hits::total              1262200                       # number of demand (read+write) hits
system.icache.overall_hits::.cpu.inst         1262200                       # number of overall hits
system.icache.overall_hits::total             1262200                       # number of overall hits
system.icache.demand_misses::.cpu.inst           6696                       # number of demand (read+write) misses
system.icache.demand_misses::total               6696                       # number of demand (read+write) misses
system.icache.overall_misses::.cpu.inst          6696                       # number of overall misses
system.icache.overall_misses::total              6696                       # number of overall misses
system.icache.demand_miss_latency::.cpu.inst    219846000                       # number of demand (read+write) miss cycles
system.icache.demand_miss_latency::total    219846000                       # number of demand (read+write) miss cycles
system.icache.overall_miss_latency::.cpu.inst    219846000                       # number of overall miss cycles
system.icache.overall_miss_latency::total    219846000                       # number of overall miss cycles
system.icache.demand_accesses::.cpu.inst      1268896                       # number of demand (read+write) accesses
system.icache.demand_accesses::total          1268896                       # number of demand (read+write) accesses
system.icache.overall_accesses::.cpu.inst      1268896                       # number of overall (read+write) accesses
system.icache.overall_accesses::total         1268896                       # number of overall (read+write) accesses
system.icache.demand_miss_rate::.cpu.inst     0.005277                       # miss rate for demand accesses
system.icache.demand_miss_rate::total        0.005277                       # miss rate for demand accesses
system.icache.overall_miss_rate::.cpu.inst     0.005277                       # miss rate for overall accesses
system.icache.overall_miss_rate::total       0.005277                       # miss rate for overall accesses
system.icache.demand_avg_miss_latency::.cpu.inst 32832.437276                       # average overall miss latency
system.icache.demand_avg_miss_latency::total 32832.437276                       # average overall miss latency
system.icache.overall_avg_miss_latency::.cpu.inst 32832.437276                       # average overall miss latency
system.icache.overall_avg_miss_latency::total 32832.437276                       # average overall miss latency
system.icache.blocked_cycles::no_mshrs              0                       # number of cycles access was blocked
system.icache.blocked_cycles::no_targets            0                       # number of cycles access was blocked
system.icache.blocked::no_mshrs                     0                       # number of cycles access was blocked
system.icache.blocked::no_targets                   0                       # number of cycles access was blocked
system.icache.avg_blocked_cycles::no_mshrs          nan                       # average number of cycles each access was blocked
system.icache.avg_blocked_cycles::no_targets          nan                       # average number of cycles each access was blocked
system.icache.demand_mshr_misses::.cpu.inst         6696                       # number of demand (read+write) MSHR misses
system.icache.demand_mshr_misses::total          6696                       # number of demand (read+write) MSHR misses
system.icache.overall_mshr_misses::.cpu.inst         6696                       # number of overall MSHR misses
system.icache.overall_mshr_misses::total         6696                       # number of overall MSHR misses
system.icache.demand_mshr_miss_latency::.cpu.inst    206454000                       # number of demand (read+write) MSHR miss cycles
system.icache.demand_mshr_miss_latency::total    206454000                       # number of demand (read+write) MSHR miss cycles
system.icache.overall_mshr_miss_latency::.cpu.inst    206454000                       # number of overall MSHR miss cycles
system.icache.overall_mshr_miss_latency::total    206454000                       # number of overall MSHR miss cycles
system.icache.demand_mshr_miss_rate::.cpu.inst     0.005277                       # mshr miss rate for demand accesses
system.icache.demand_mshr_miss_rate::total     0.005277                       # mshr miss rate for demand accesses
system.icache.overall_mshr_miss_rate::.cpu.inst     0.005277                       # mshr miss rate for overall accesses
system.icache.overall_mshr_miss_rate::total     0.005277                       # mshr miss rate for overall accesses
system.icache.demand_avg_mshr_miss_latency::.cpu.inst 30832.437276                       # average overall mshr miss latency
system.icache.demand_avg_mshr_miss_latency::total 30832.437276                       # average overall mshr miss latency
system.icache.overall_avg_mshr_miss_latency::.cpu.inst 30832.437276                       # average overall mshr miss latency
system.icache.overall_avg_mshr_miss_latency::total 30832.437276                       # average overall mshr miss latency
system.icache.replacements                       6440                       # number of replacements
system.icache.ReadReq_hits::.cpu.inst         1262200                       # number of ReadReq hits
system.icache.ReadReq_hits::total             1262200                       # number of ReadReq hits
system.icache.ReadReq_misses::.cpu.inst          6696                       # number of ReadReq misses
system.icache.ReadReq_misses::total              6696                       # number of ReadReq misses
system.icache.ReadReq_miss_latency::.cpu.inst    219846000                       # number of ReadReq miss cycles
system.icache.ReadReq_miss_latency::total    219846000                       # number of ReadReq miss cycles
system.icache.ReadReq_accesses::.cpu.inst      1268896                       # number of ReadReq accesses(hits+misses)
system.icache.ReadReq_accesses::total         1268896                       # number of ReadReq accesses(hits+misses)
system.icache.ReadReq_miss_rate::.cpu.inst     0.005277                       # miss rate for ReadReq accesses
system.icache.ReadReq_miss_rate::total       0.005277                       # miss rate for ReadReq accesses
system.icache.ReadReq_avg_miss_latency::.cpu.inst 32832.437276                       # average ReadReq miss latency
system.icache.ReadReq_avg_miss_latency::total 32832.437276                       # average ReadReq miss latency
system.icache.ReadReq_mshr_misses::.cpu.inst         6696                       # number of ReadReq MSHR misses
system.icache.ReadReq_mshr_misses::total         6696                       # number of ReadReq MSHR misses
system.icache.ReadReq_mshr_miss_latency::.cpu.inst    206454000                       # number of ReadReq MSHR miss cycles
system.icache.ReadReq_mshr_miss_latency::total    206454000                       # number of ReadReq MSHR miss cycles
system.icache.ReadReq_mshr_miss_rate::.cpu.inst     0.005277                       # mshr miss rate for ReadReq accesses
system.icache.ReadReq_mshr_miss_rate::total     0.005277                       # mshr miss rate for ReadReq accesses
system.icache.ReadReq_avg_mshr_miss_latency::.cpu.inst 30832.437276                       # average ReadReq mshr miss latency
system.icache.ReadReq_avg_mshr_miss_latency::total 30832.437276                       # average ReadReq mshr miss latency
system.icache.power_state.pwrStateResidencyTicks::UNDEFINED   3490530000                       # Cumulative time (in ticks) in various power states
system.icache.tags.tagsinuse               249.708640                       # Cycle average of tags in use
system.icache.tags.total_refs                  976075                       # Total number of references to valid blocks.
system.icache.tags.sampled_refs                  6440                       # Sample count of references to valid blocks.
system.icache.tags.avg_refs                151.564441                       # Average number of references to valid blocks.
system.icache.tags.warmup_cycle                 82000                       # Cycle when the warmup percentage was hit.
system.icache.tags.occ_blocks::.cpu.inst   249.708640                       # Average occupied blocks per requestor
system.icache.tags.occ_percent::.cpu.inst     0.975424                       # Average percentage of cache occupancy
system.icache.tags.occ_percent::total        0.975424                       # Average percentage of cache occupancy
system.icache.tags.occ_task_id_blocks::1024          256                       # Occupied blocks per task id
system.icache.tags.age_task_id_blocks_1024::0            1                       # Occupied blocks per task id
system.icache.tags.age_task_id_blocks_1024::1           63                       # Occupied blocks per task id
system.icache.tags.age_task_id_blocks_1024::2           28                       # Occupied blocks per task id
system.icache.tags.age_task_id_blocks_1024::3          164                       # Occupied blocks per task id
system.icache.tags.occ_task_id_percent::1024            1                       # Percentage of cache occupancy per task id
system.icache.tags.tag_accesses               1275592                       # Number of tag accesses
system.icache.tags.data_accesses              1275592                       # Number of data accesses
system.icache.tags.power_state.pwrStateResidencyTicks::UNDEFINED   3490530000                       # Cumulative time (in ticks) in various power states
system.membus.trans_dist::ReadReq                2874                       # Transaction distribution
system.membus.trans_dist::ReadResp               2874                       # Transaction distribution
system.membus.trans_dist::WritebackDirty            8                       # Transaction distribution
system.membus.pkt_count_system.cache_small.mem_side::system.mem_ctrl.port         5756                       # Packet count per connected master and slave (bytes)
system.membus.pkt_count_system.cache_small.mem_side::total         5756                       # Packet count per connected master and slave (bytes)
system.membus.pkt_count::total                   5756                       # Packet count per connected master and slave (bytes)
system.membus.pkt_size_system.cache_small.mem_side::system.mem_ctrl.port       184448                       # Cumulative packet size per connected master and slave (bytes)
system.membus.pkt_size_system.cache_small.mem_side::total       184448                       # Cumulative packet size per connected master and slave (bytes)
system.membus.pkt_size::total                  184448                       # Cumulative packet size per connected master and slave (bytes)
system.membus.reqLayer2.occupancy             2914000                       # Layer occupancy (ticks)
system.membus.reqLayer2.utilization               0.1                       # Layer utilization (%)
system.membus.respLayer1.occupancy           15259750                       # Layer occupancy (ticks)
system.membus.respLayer1.utilization              0.4                       # Layer utilization (%)
system.membus.power_state.pwrStateResidencyTicks::UNDEFINED   3490530000                       # Cumulative time (in ticks) in various power states
system.mem_ctrl.bytes_read::.cpu.inst          111808                       # Number of bytes read from this memory
system.mem_ctrl.bytes_read::.cpu.data           72128                       # Number of bytes read from this memory
system.mem_ctrl.bytes_read::total              183936                       # Number of bytes read from this memory
system.mem_ctrl.bytes_inst_read::.cpu.inst       111808                       # Number of instructions bytes read from this memory
system.mem_ctrl.bytes_inst_read::total         111808                       # Number of instructions bytes read from this memory
system.mem_ctrl.bytes_written::.writebacks          512                       # Number of bytes written to this memory
system.mem_ctrl.bytes_written::total              512                       # Number of bytes written to this memory
system.mem_ctrl.num_reads::.cpu.inst             1747                       # Number of read requests responded to by this memory
system.mem_ctrl.num_reads::.cpu.data             1127                       # Number of read requests responded to by this memory
system.mem_ctrl.num_reads::total                 2874                       # Number of read requests responded to by this memory
system.mem_ctrl.num_writes::.writebacks             8                       # Number of write requests responded to by this memory
system.mem_ctrl.num_writes::total                   8                       # Number of write requests responded to by this memory
system.mem_ctrl.bw_read::.cpu.inst           32031812                       # Total read bandwidth from this memory (bytes/s)
system.mem_ctrl.bw_read::.cpu.data           20663911                       # Total read bandwidth from this memory (bytes/s)
system.mem_ctrl.bw_read::total               52695722                       # Total read bandwidth from this memory (bytes/s)
system.mem_ctrl.bw_inst_read::.cpu.inst      32031812                       # Instruction read bandwidth from this memory (bytes/s)
system.mem_ctrl.bw_inst_read::total          32031812                       # Instruction read bandwidth from this memory (bytes/s)
system.mem_ctrl.bw_write::.writebacks          146683                       # Write bandwidth from this memory (bytes/s)
system.mem_ctrl.bw_write::total                146683                       # Write bandwidth from this memory (bytes/s)
system.mem_ctrl.bw_total::.writebacks          146683                       # Total bandwidth to/from this memory (bytes/s)
system.mem_ctrl.bw_total::.cpu.inst          32031812                       # Total bandwidth to/from this memory (bytes/s)
system.mem_ctrl.bw_total::.cpu.data          20663911                       # Total bandwidth to/from this memory (bytes/s)
system.mem_ctrl.bw_total::total              52842405                       # Total bandwidth to/from this memory (bytes/s)
system.mem_ctrl.avgPriority_.writebacks::samples         4.00                       # Average QoS priority value for accepted requests
system.mem_ctrl.avgPriority_.cpu.inst::samples      1747.00                       # Average QoS priority value for accepted requests
system.mem_ctrl.avgPriority_.cpu.data::samples      1123.00                       # Average QoS priority value for accepted requests
system.mem_ctrl.priorityMinLatency       0.000000018750                       # per QoS priority minimum request to response latency (s)
system.mem_ctrl.priorityMaxLatency       0.000000548500                       # per QoS priority maximum request to response latency (s)
system.mem_ctrl.numReadWriteTurnArounds             0                       # Number of turnarounds from READ to WRITE
system.mem_ctrl.numWriteReadTurnArounds             0                       # Number of turnarounds from WRITE to READ
system.mem_ctrl.numStayReadState                 6644                       # Number of times bus staying in READ state
system.mem_ctrl.numStayWriteState                   0                       # Number of times bus staying in WRITE state
system.mem_ctrl.readReqs                         2874                       # Number of read requests accepted
system.mem_ctrl.writeReqs                           8                       # Number of write requests accepted
system.mem_ctrl.readBursts                       2874                       # Number of DRAM read bursts, including those serviced by the write queue
system.mem_ctrl.writeBursts                         8                       # Number of DRAM write bursts, including those merged in the write queue
system.mem_ctrl.servicedByWrQ                       4                       # Number of DRAM read bursts serviced by the write queue
system.mem_ctrl.mergedWrBursts                      4                       # Number of DRAM write bursts merged with an existing one
system.mem_ctrl.neitherReadNorWriteReqs             0                       # Number of requests that are neither read nor write
system.mem_ctrl.perBankRdBursts::0                260                       # Per bank write bursts
system.mem_ctrl.perBankRdBursts::1                113                       # Per bank write bursts
system.mem_ctrl.perBankRdBursts::2                257                       # Per bank write bursts
system.mem_ctrl.perBankRdBursts::3                229                       # Per bank write bursts
system.mem_ctrl.perBankRdBursts::4                149                       # Per bank write bursts
system.mem_ctrl.perBankRdBursts::5                227                       # Per bank write bursts
system.mem_ctrl.perBankRdBursts::6                224                       # Per bank write bursts
system.mem_ctrl.perBankRdBursts::7                111                       # Per bank write bursts
system.mem_ctrl.perBankRdBursts::8                 57                       # Per bank write bursts
system.mem_ctrl.perBankRdBursts::9                146                       # Per bank write bursts
system.mem_ctrl.perBankRdBursts::10               156                       # Per bank write bursts
system.mem_ctrl.perBankRdBursts::11               135                       # Per bank write bursts
system.mem_ctrl.perBankRdBursts::12               188                       # Per bank write bursts
system.mem_ctrl.perBankRdBursts::13               227                       # Per bank write bursts
system.mem_ctrl.perBankRdBursts::14               195                       # Per bank write bursts
system.mem_ctrl.perBankRdBursts::15               196                       # Per bank write bursts
system.mem_ctrl.perBankWrBursts::0                  0                       # Per bank write bursts
system.mem_ctrl.perBankWrBursts::1                  0                       # Per bank write bursts
system.mem_ctrl.perBankWrBursts::2                  0                       # Per bank write bursts
system.mem_ctrl.perBankWrBursts::3                  0                       # Per bank write bursts
system.mem_ctrl.perBankWrBursts::4                  0                       # Per bank write bursts
system.mem_ctrl.perBankWrBursts::5                  0                       # Per bank write bursts
system.mem_ctrl.perBankWrBursts::6                  0                       # Per bank write bursts
system.mem_ctrl.perBankWrBursts::7                  0                       # Per bank write bursts
system.mem_ctrl.perBankWrBursts::8                  0                       # Per bank write bursts
system.mem_ctrl.perBankWrBursts::9                  0                       # Per bank write bursts
system.mem_ctrl.perBankWrBursts::10                 0                       # Per bank write bursts
system.mem_ctrl.perBankWrBursts::11                 0                       # Per bank write bursts
system.mem_ctrl.perBankWrBursts::12                 0                       # Per bank write bursts
system.mem_ctrl.perBankWrBursts::13                 0                       # Per bank write bursts
system.mem_ctrl.perBankWrBursts::14                 0                       # Per bank write bursts
system.mem_ctrl.perBankWrBursts::15                 0                       # Per bank write bursts
system.mem_ctrl.avgRdQLen                        1.00                       # Average read queue length when enqueuing
system.mem_ctrl.avgWrQLen                        3.84                       # Average write queue length when enqueuing
system.mem_ctrl.totQLat                      18862750                       # Total ticks spent queuing
system.mem_ctrl.totBusLat                    14350000                       # Total ticks spent in databus transfers
system.mem_ctrl.totMemAccLat                 72675250                       # Total ticks spent from burst creation until serviced by the DRAM
system.mem_ctrl.avgQLat                       6572.39                       # Average queueing delay per DRAM burst
system.mem_ctrl.avgBusLat                     5000.00                       # Average bus latency per DRAM burst
system.mem_ctrl.avgMemAccLat                 25322.39                       # Average memory access latency per DRAM burst
system.mem_ctrl.numRdRetry                          0                       # Number of times read queue was full causing retry
system.mem_ctrl.numWrRetry                          0                       # Number of times write queue was full causing retry
system.mem_ctrl.readRowHits                      2244                       # Number of row buffer hits during reads
system.mem_ctrl.writeRowHits                        0                       # Number of row buffer hits during writes
system.mem_ctrl.readRowHitRate                  78.19                       # Row buffer hit rate for reads
system.mem_ctrl.writeRowHitRate                  0.00                       # Row buffer hit rate for writes
system.mem_ctrl.readPktSize::0                      0                       # Read request sizes (log2)
system.mem_ctrl.readPktSize::1                      0                       # Read request sizes (log2)
system.mem_ctrl.readPktSize::2                      0                       # Read request sizes (log2)
system.mem_ctrl.readPktSize::3                      0                       # Read request sizes (log2)
system.mem_ctrl.readPktSize::4                      0                       # Read request sizes (log2)
system.mem_ctrl.readPktSize::5                      0                       # Read request sizes (log2)
system.mem_ctrl.readPktSize::6                   2874                       # Read request sizes (log2)
system.mem_ctrl.writePktSize::0                     0                       # Write request sizes (log2)
system.mem_ctrl.writePktSize::1                     0                       # Write request sizes (log2)
system.mem_ctrl.writePktSize::2                     0                       # Write request sizes (log2)
system.mem_ctrl.writePktSize::3                     0                       # Write request sizes (log2)
system.mem_ctrl.writePktSize::4                     0                       # Write request sizes (log2)
system.mem_ctrl.writePktSize::5                     0                       # Write request sizes (log2)
system.mem_ctrl.writePktSize::6                     8                       # Write request sizes (log2)
system.mem_ctrl.rdQLenPdf::0                     2870                       # What read queue length does an incoming req see
system.mem_ctrl.rdQLenPdf::1                        0                       # What read queue length does an incoming req see
system.mem_ctrl.rdQLenPdf::2                        0                       # What read queue length does an incoming req see
system.mem_ctrl.rdQLenPdf::3                        0                       # What read queue length does an incoming req see
system.mem_ctrl.rdQLenPdf::4                        0                       # What read queue length does an incoming req see
system.mem_ctrl.rdQLenPdf::5                        0                       # What read queue length does an incoming req see
system.mem_ctrl.rdQLenPdf::6                        0                       # What read queue length does an incoming req see
system.mem_ctrl.rdQLenPdf::7                        0                       # What read queue length does an incoming req see
system.mem_ctrl.rdQLenPdf::8                        0                       # What read queue length does an incoming req see
system.mem_ctrl.rdQLenPdf::9                        0                       # What read queue length does an incoming req see
system.mem_ctrl.rdQLenPdf::10                       0                       # What read queue length does an incoming req see
system.mem_ctrl.rdQLenPdf::11                       0                       # What read queue length does an incoming req see
system.mem_ctrl.rdQLenPdf::12                       0                       # What read queue length does an incoming req see
system.mem_ctrl.rdQLenPdf::13                       0                       # What read queue length does an incoming req see
system.mem_ctrl.rdQLenPdf::14                       0                       # What read queue length does an incoming req see
system.mem_ctrl.rdQLenPdf::15                       0                       # What read queue length does an incoming req see
system.mem_ctrl.rdQLenPdf::16                       0                       # What read queue length does an incoming req see
system.mem_ctrl.rdQLenPdf::17                       0                       # What read queue length does an incoming req see
system.mem_ctrl.rdQLenPdf::18                       0                       # What read queue length does an incoming req see
system.mem_ctrl.rdQLenPdf::19                       0                       # What read queue length does an incoming req see
system.mem_ctrl.rdQLenPdf::20                       0                       # What read queue length does an incoming req see
system.mem_ctrl.rdQLenPdf::21                       0                       # What read queue length does an incoming req see
system.mem_ctrl.rdQLenPdf::22                       0                       # What read queue length does an incoming req see
system.mem_ctrl.rdQLenPdf::23                       0                       # What read queue length does an incoming req see
system.mem_ctrl.rdQLenPdf::24                       0                       # What read queue length does an incoming req see
system.mem_ctrl.rdQLenPdf::25                       0                       # What read queue length does an incoming req see
system.mem_ctrl.rdQLenPdf::26                       0                       # What read queue length does an incoming req see
system.mem_ctrl.rdQLenPdf::27                       0                       # What read queue length does an incoming req see
system.mem_ctrl.rdQLenPdf::28                       0                       # What read queue length does an incoming req see
system.mem_ctrl.rdQLenPdf::29                       0                       # What read queue length does an incoming req see
system.mem_ctrl.rdQLenPdf::30                       0                       # What read queue length does an incoming req see
system.mem_ctrl.rdQLenPdf::31                       0                       # What read queue length does an incoming req see
system.mem_ctrl.wrQLenPdf::0                        1                       # What write queue length does an incoming req see
system.mem_ctrl.wrQLenPdf::1                        1                       # What write queue length does an incoming req see
system.mem_ctrl.wrQLenPdf::2                        1                       # What write queue length does an incoming req see
system.mem_ctrl.wrQLenPdf::3                        1                       # What write queue length does an incoming req see
system.mem_ctrl.wrQLenPdf::4                        0                       # What write queue length does an incoming req see
system.mem_ctrl.wrQLenPdf::5                        0                       # What write queue length does an incoming req see
system.mem_ctrl.wrQLenPdf::6                        0                       # What write queue length does an incoming req see
system.mem_ctrl.wrQLenPdf::7                        0                       # What write queue length does an incoming req see
system.mem_ctrl.wrQLenPdf::8                        0                       # What write queue length does an incoming req see
system.mem_ctrl.wrQLenPdf::9                        0                       # What write queue length does an incoming req see
system.mem_ctrl.wrQLenPdf::10                       0                       # What write queue length does an incoming req see
system.mem_ctrl.wrQLenPdf::11                       0                       # What write queue length does an incoming req see
system.mem_ctrl.wrQLenPdf::12                       0                       # What write queue length does an incoming req see
system.mem_ctrl.wrQLenPdf::13                       0                       # What write queue length does an incoming req see
system.mem_ctrl.wrQLenPdf::14                       0                       # What write queue length does an incoming req see
system.mem_ctrl.wrQLenPdf::15                       0                       # What write queue length does an incoming req see
system.mem_ctrl.wrQLenPdf::16                       0                       # What write queue length does an incoming req see
system.mem_ctrl.wrQLenPdf::17                       0                       # What write queue length does an incoming req see
system.mem_ctrl.wrQLenPdf::18                       0                       # What write queue length does an incoming req see
system.mem_ctrl.wrQLenPdf::19                       0                       # What write queue length does an incoming req see
system.mem_ctrl.wrQLenPdf::20                       0                       # What write queue length does an incoming req see
system.mem_ctrl.wrQLenPdf::21                       0                       # What write queue length does an incoming req see
system.mem_ctrl.wrQLenPdf::22                       0                       # What write queue length does an incoming req see
system.mem_ctrl.wrQLenPdf::23                       0                       # What write queue length does an incoming req see
system.mem_ctrl.wrQLenPdf::24                       0                       # What write queue length does an incoming req see
system.mem_ctrl.wrQLenPdf::25                       0                       # What write queue length does an incoming req see
system.mem_ctrl.wrQLenPdf::26                       0                       # What write queue length does an incoming req see
system.mem_ctrl.wrQLenPdf::27                       0                       # What write queue length does an incoming req see
system.mem_ctrl.wrQLenPdf::28                       0                       # What write queue length does an incoming req see
system.mem_ctrl.wrQLenPdf::29                       0                       # What write queue length does an incoming req see
system.mem_ctrl.wrQLenPdf::30                       0                       # What write queue length does an incoming req see
system.mem_ctrl.wrQLenPdf::31                       0                       # What write queue length does an incoming req see
system.mem_ctrl.wrQLenPdf::32                       0                       # What write queue length does an incoming req see
system.mem_ctrl.wrQLenPdf::33                       0                       # What write queue length does an incoming req see
system.mem_ctrl.wrQLenPdf::34                       0                       # What write queue length does an incoming req see
system.mem_ctrl.wrQLenPdf::35                       0                       # What write queue length does an incoming req see
system.mem_ctrl.wrQLenPdf::36                       0                       # What write queue length does an incoming req see
system.mem_ctrl.wrQLenPdf::37                       0                       # What write queue length does an incoming req see
system.mem_ctrl.wrQLenPdf::38                       0                       # What write queue length does an incoming req see
system.mem_ctrl.wrQLenPdf::39                       0                       # What write queue length does an incoming req see
system.mem_ctrl.wrQLenPdf::40                       0                       # What write queue length does an incoming req see
system.mem_ctrl.wrQLenPdf::41                       0                       # What write queue length does an incoming req see
system.mem_ctrl.wrQLenPdf::42                       0                       # What write queue length does an incoming req see
system.mem_ctrl.wrQLenPdf::43                       0                       # What write queue length does an incoming req see
system.mem_ctrl.wrQLenPdf::44                       0                       # What write queue length does an incoming req see
system.mem_ctrl.wrQLenPdf::45                       0                       # What write queue length does an incoming req see
system.mem_ctrl.wrQLenPdf::46                       0                       # What write queue length does an incoming req see
system.mem_ctrl.wrQLenPdf::47                       0                       # What write queue length does an incoming req see
system.mem_ctrl.wrQLenPdf::48                       0                       # What write queue length does an incoming req see
system.mem_ctrl.wrQLenPdf::49                       0                       # What write queue length does an incoming req see
system.mem_ctrl.wrQLenPdf::50                       0                       # What write queue length does an incoming req see
system.mem_ctrl.wrQLenPdf::51                       0                       # What write queue length does an incoming req see
system.mem_ctrl.wrQLenPdf::52                       0                       # What write queue length does an incoming req see
system.mem_ctrl.wrQLenPdf::53                       0                       # What write queue length does an incoming req see
system.mem_ctrl.wrQLenPdf::54                       0                       # What write queue length does an incoming req see
system.mem_ctrl.wrQLenPdf::55                       0                       # What write queue length does an incoming req see
system.mem_ctrl.wrQLenPdf::56                       0                       # What write queue length does an incoming req see
system.mem_ctrl.wrQLenPdf::57                       0                       # What write queue length does an incoming req see
system.mem_ctrl.wrQLenPdf::58                       0                       # What write queue length does an incoming req see
system.mem_ctrl.wrQLenPdf::59                       0                       # What write queue length does an incoming req see
system.mem_ctrl.wrQLenPdf::60                       0                       # What write queue length does an incoming req see
system.mem_ctrl.wrQLenPdf::61                       0                       # What write queue length does an incoming req see
system.mem_ctrl.wrQLenPdf::62                       0                       # What write queue length does an incoming req see
system.mem_ctrl.wrQLenPdf::63                       0                       # What write queue length does an incoming req see
system.mem_ctrl.bytesPerActivate::samples          626                       # Bytes accessed per row activation
system.mem_ctrl.bytesPerActivate::mean     293.418530                       # Bytes accessed per row activation
system.mem_ctrl.bytesPerActivate::gmean    181.824346                       # Bytes accessed per row activation
system.mem_ctrl.bytesPerActivate::stdev    303.422241                       # Bytes accessed per row activation
system.mem_ctrl.bytesPerActivate::0-127           208     33.23%     33.23% # Bytes accessed per row activation
system.mem_ctrl.bytesPerActivate::128-255          176     28.12%     61.34% # Bytes accessed per row activation
system.mem_ctrl.bytesPerActivate::256-383           72     11.50%     72.84% # Bytes accessed per row activation
system.mem_ctrl.bytesPerActivate::384-511           40      6.39%     79.23% # Bytes accessed per row activation
system.mem_ctrl.bytesPerActivate::512-639           30      4.79%     84.03% # Bytes accessed per row activation
system.mem_ctrl.bytesPerActivate::640-767           19      3.04%     87.06% # Bytes accessed per row activation
system.mem_ctrl.bytesPerActivate::768-895           15      2.40%     89.46% # Bytes accessed per row activation
system.mem_ctrl.bytesPerActivate::896-1023           13      2.08%     91.53% # Bytes accessed per row activation
system.mem_ctrl.bytesPerActivate::1024-1151           53      8.47%    100.00% # Bytes accessed per row activation
system.mem_ctrl.bytesPerActivate::total           626                       # Bytes accessed per row activation
system.mem_ctrl.bytesReadDRAM                  183680                       # Total number of bytes read from DRAM
system.mem_ctrl.bytesReadWrQ                      256                       # Total number of bytes read from write queue
system.mem_ctrl.bytesWritten                        0                       # Total number of bytes written to DRAM
system.mem_ctrl.bytesReadSys                   183936                       # Total read bytes from the system interface side
system.mem_ctrl.bytesWrittenSys                   512                       # Total written bytes from the system interface side
system.mem_ctrl.avgRdBW                         52.62                       # Average DRAM read bandwidth in MiByte/s
system.mem_ctrl.avgWrBW                          0.00                       # Average achieved write bandwidth in MiByte/s
system.mem_ctrl.avgRdBWSys                      52.70                       # Average system read bandwidth in MiByte/s
system.mem_ctrl.avgWrBWSys                       0.15                       # Average system write bandwidth in MiByte/s
system.mem_ctrl.peakBW                       12800.00                       # Theoretical peak bandwidth in MiByte/s
system.mem_ctrl.busUtil                          0.41                       # Data bus utilization in percentage
system.mem_ctrl.busUtilRead                      0.41                       # Data bus utilization in percentage for reads
system.mem_ctrl.busUtilWrite                     0.00                       # Data bus utilization in percentage for writes
system.mem_ctrl.totGap                     3457965000                       # Total gap between requests
system.mem_ctrl.avgGap                     1199849.06                       # Average gap between requests
system.mem_ctrl.masterReadBytes::.cpu.inst       111808                       # Per-master bytes read from memory
system.mem_ctrl.masterReadBytes::.cpu.data        71872                       # Per-master bytes read from memory
system.mem_ctrl.masterReadRate::.cpu.inst 32031811.787894677371                       # Per-master bytes read from memory rate (Bytes/sec)
system.mem_ctrl.masterReadRate::.cpu.data 20590569.340472649783                       # Per-master bytes read from memory rate (Bytes/sec)
system.mem_ctrl.masterReadAccesses::.cpu.inst         1747                       # Per-master read serviced memory accesses
system.mem_ctrl.masterReadAccesses::.cpu.data         1127                       # Per-master read serviced memory accesses
system.mem_ctrl.masterWriteAccesses::.writebacks            8                       # Per-master write serviced memory accesses
system.mem_ctrl.masterReadTotalLat::.cpu.inst     43283000                       # Per-master read total memory access latency
system.mem_ctrl.masterReadTotalLat::.cpu.data     29392250                       # Per-master read total memory access latency
system.mem_ctrl.masterReadAvgLat::.cpu.inst     24775.62                       # Per-master read average memory access latency
system.mem_ctrl.masterReadAvgLat::.cpu.data     26080.08                       # Per-master read average memory access latency
system.mem_ctrl.masterWriteAvgLat::.writebacks         0.00                       # Per-master write average memory access latency
system.mem_ctrl.pageHitRate                     78.08                       # Row buffer hit rate, read and write combined
system.mem_ctrl.rank1.actEnergy               1677900                       # Energy for activate commands per rank (pJ)
system.mem_ctrl.rank1.preEnergy                891825                       # Energy for precharge commands per rank (pJ)
system.mem_ctrl.rank1.readEnergy              9282000                       # Energy for read commands per rank (pJ)
system.mem_ctrl.rank1.writeEnergy                   0                       # Energy for write commands per rank (pJ)
system.mem_ctrl.rank1.refreshEnergy      275358720.000000                       # Energy for refresh commands per rank (pJ)
system.mem_ctrl.rank1.actBackEnergy         238786110                       # Energy for active background per rank (pJ)
system.mem_ctrl.rank1.preBackEnergy        1139280480                       # Energy for precharge background per rank (pJ)
system.mem_ctrl.rank1.actPowerDownEnergy            0                       # Energy for active power-down per rank (pJ)
system.mem_ctrl.rank1.prePowerDownEnergy            0                       # Energy for precharge power-down per rank (pJ)
system.mem_ctrl.rank1.selfRefreshEnergy             0                       # Energy for self refresh per rank (pJ)
system.mem_ctrl.rank1.totalEnergy          1665277035                       # Total energy per rank (pJ)
system.mem_ctrl.rank1.averagePower         477.084292                       # Core power per rank (mW)
system.mem_ctrl.rank1.totalIdleTime                 0                       # Total Idle time Per DRAM Rank
system.mem_ctrl.rank1.memoryStateTime::IDLE   2959564750                       # Time in different power states
system.mem_ctrl.rank1.memoryStateTime::REF    116480000                       # Time in different power states
system.mem_ctrl.rank1.memoryStateTime::SREF            0                       # Time in different power states
system.mem_ctrl.rank1.memoryStateTime::PRE_PDN            0                       # Time in different power states
system.mem_ctrl.rank1.memoryStateTime::ACT    414485250                       # Time in different power states
system.mem_ctrl.rank1.memoryStateTime::ACT_PDN            0                       # Time in different power states
system.mem_ctrl.rank0.actEnergy               2791740                       # Energy for activate commands per rank (pJ)
system.mem_ctrl.rank0.preEnergy               1483845                       # Energy for precharge commands per rank (pJ)
system.mem_ctrl.rank0.readEnergy             11209800                       # Energy for read commands per rank (pJ)
system.mem_ctrl.rank0.writeEnergy                   0                       # Energy for write commands per rank (pJ)
system.mem_ctrl.rank0.refreshEnergy      275358720.000000                       # Energy for refresh commands per rank (pJ)
system.mem_ctrl.rank0.actBackEnergy         433378410                       # Energy for active background per rank (pJ)
system.mem_ctrl.rank0.preBackEnergy         975413280                       # Energy for precharge background per rank (pJ)
system.mem_ctrl.rank0.actPowerDownEnergy            0                       # Energy for active power-down per rank (pJ)
system.mem_ctrl.rank0.prePowerDownEnergy            0                       # Energy for precharge power-down per rank (pJ)
system.mem_ctrl.rank0.selfRefreshEnergy             0                       # Energy for self refresh per rank (pJ)
system.mem_ctrl.rank0.totalEnergy          1699635795                       # Total energy per rank (pJ)
system.mem_ctrl.rank0.averagePower         486.927714                       # Core power per rank (mW)
system.mem_ctrl.rank0.totalIdleTime                 0                       # Total Idle time Per DRAM Rank
system.mem_ctrl.rank0.memoryStateTime::IDLE   2531293750                       # Time in different power states
system.mem_ctrl.rank0.memoryStateTime::REF    116480000                       # Time in different power states
system.mem_ctrl.rank0.memoryStateTime::SREF            0                       # Time in different power states
system.mem_ctrl.rank0.memoryStateTime::PRE_PDN            0                       # Time in different power states
system.mem_ctrl.rank0.memoryStateTime::ACT    842756250                       # Time in different power states
system.mem_ctrl.rank0.memoryStateTime::ACT_PDN            0                       # Time in different power states
system.mem_ctrl.power_state.pwrStateResidencyTicks::UNDEFINED   3490530000                       # Cumulative time (in ticks) in various power states
system.cache_medium.blocked_cycles::no_mshrs            0                       # number of cycles access was blocked
system.cache_medium.blocked_cycles::no_targets            0                       # number of cycles access was blocked
system.cache_medium.blocked::no_mshrs               0                       # number of cycles access was blocked
system.cache_medium.blocked::no_targets             0                       # number of cycles access was blocked
system.cache_medium.avg_blocked_cycles::no_mshrs          nan                       # average number of cycles each access was blocked
system.cache_medium.avg_blocked_cycles::no_targets          nan                       # average number of cycles each access was blocked
system.cache_medium.replacements                    0                       # number of replacements
system.cache_medium.power_state.pwrStateResidencyTicks::UNDEFINED   3490530000                       # Cumulative time (in ticks) in various power states
system.cache_medium.tags.tagsinuse                  0                       # Cycle average of tags in use
system.cache_medium.tags.total_refs                 0                       # Total number of references to valid blocks.
system.cache_medium.tags.sampled_refs               0                       # Sample count of references to valid blocks.
system.cache_medium.tags.avg_refs                 nan                       # Average number of references to valid blocks.
system.cache_medium.tags.warmup_cycle               0                       # Cycle when the warmup percentage was hit.
system.cache_medium.tags.tag_accesses               0                       # Number of tag accesses
system.cache_medium.tags.data_accesses              0                       # Number of data accesses
system.cache_medium.tags.power_state.pwrStateResidencyTicks::UNDEFINED   3490530000                       # Cumulative time (in ticks) in various power states
system.clk_domain.clock                          1000                       # Clock period in ticks
system.clk_domain.voltage_domain.voltage            1                       # Voltage in Volts
system.dcache.demand_hits::.cpu.data           297177                       # number of demand (read+write) hits
system.dcache.demand_hits::total               297177                       # number of demand (read+write) hits
system.dcache.overall_hits::.cpu.data          299270                       # number of overall hits
system.dcache.overall_hits::total              299270                       # number of overall hits
system.dcache.demand_misses::.cpu.data           3963                       # number of demand (read+write) misses
system.dcache.demand_misses::total               3963                       # number of demand (read+write) misses
system.dcache.overall_misses::.cpu.data          3973                       # number of overall misses
system.dcache.overall_misses::total              3973                       # number of overall misses
system.dcache.demand_miss_latency::.cpu.data    133666000                       # number of demand (read+write) miss cycles
system.dcache.demand_miss_latency::total    133666000                       # number of demand (read+write) miss cycles
system.dcache.overall_miss_latency::.cpu.data    134240000                       # number of overall miss cycles
system.dcache.overall_miss_latency::total    134240000                       # number of overall miss cycles
system.dcache.demand_accesses::.cpu.data       301140                       # number of demand (read+write) accesses
system.dcache.demand_accesses::total           301140                       # number of demand (read+write) accesses
system.dcache.overall_accesses::.cpu.data       303243                       # number of overall (read+write) accesses
system.dcache.overall_accesses::total          303243                       # number of overall (read+write) accesses
system.dcache.demand_miss_rate::.cpu.data     0.013160                       # miss rate for demand accesses
system.dcache.demand_miss_rate::total        0.013160                       # miss rate for demand accesses
system.dcache.overall_miss_rate::.cpu.data     0.013102                       # miss rate for overall accesses
system.dcache.overall_miss_rate::total       0.013102                       # miss rate for overall accesses
system.dcache.demand_avg_miss_latency::.cpu.data 33728.488519                       # average overall miss latency
system.dcache.demand_avg_miss_latency::total 33728.488519                       # average overall miss latency
system.dcache.overall_avg_miss_latency::.cpu.data 33788.069469                       # average overall miss latency
system.dcache.overall_avg_miss_latency::total 33788.069469                       # average overall miss latency
system.dcache.blocked_cycles::no_mshrs              0                       # number of cycles access was blocked
system.dcache.blocked_cycles::no_targets            0                       # number of cycles access was blocked
system.dcache.blocked::no_mshrs                     0                       # number of cycles access was blocked
system.dcache.blocked::no_targets                   0                       # number of cycles access was blocked
system.dcache.avg_blocked_cycles::no_mshrs          nan                       # average number of cycles each access was blocked
system.dcache.avg_blocked_cycles::no_targets          nan                       # average number of cycles each access was blocked
system.dcache.writebacks::.writebacks            2050                       # number of writebacks
system.dcache.writebacks::total                  2050                       # number of writebacks
system.dcache.demand_mshr_misses::.cpu.data         3963                       # number of demand (read+write) MSHR misses
system.dcache.demand_mshr_misses::total          3963                       # number of demand (read+write) MSHR misses
system.dcache.overall_mshr_misses::.cpu.data         3973                       # number of overall MSHR misses
system.dcache.overall_mshr_misses::total         3973                       # number of overall MSHR misses
system.dcache.demand_mshr_miss_latency::.cpu.data    125742000                       # number of demand (read+write) MSHR miss cycles
system.dcache.demand_mshr_miss_latency::total    125742000                       # number of demand (read+write) MSHR miss cycles
system.dcache.overall_mshr_miss_latency::.cpu.data    126296000                       # number of overall MSHR miss cycles
system.dcache.overall_mshr_miss_latency::total    126296000                       # number of overall MSHR miss cycles
system.dcache.demand_mshr_miss_rate::.cpu.data     0.013160                       # mshr miss rate for demand accesses
system.dcache.demand_mshr_miss_rate::total     0.013160                       # mshr miss rate for demand accesses
system.dcache.overall_mshr_miss_rate::.cpu.data     0.013102                       # mshr miss rate for overall accesses
system.dcache.overall_mshr_miss_rate::total     0.013102                       # mshr miss rate for overall accesses
system.dcache.demand_avg_mshr_miss_latency::.cpu.data 31728.993187                       # average overall mshr miss latency
system.dcache.demand_avg_mshr_miss_latency::total 31728.993187                       # average overall mshr miss latency
system.dcache.overall_avg_mshr_miss_latency::.cpu.data 31788.572867                       # average overall mshr miss latency
system.dcache.overall_avg_mshr_miss_latency::total 31788.572867                       # average overall mshr miss latency
system.dcache.replacements                       3716                       # number of replacements
system.dcache.ReadReq_hits::.cpu.data          198750                       # number of ReadReq hits
system.dcache.ReadReq_hits::total              198750                       # number of ReadReq hits
system.dcache.ReadReq_misses::.cpu.data          2557                       # number of ReadReq misses
system.dcache.ReadReq_misses::total              2557                       # number of ReadReq misses
system.dcache.ReadReq_miss_latency::.cpu.data     56969000                       # number of ReadReq miss cycles
system.dcache.ReadReq_miss_latency::total     56969000                       # number of ReadReq miss cycles
system.dcache.ReadReq_accesses::.cpu.data       201307                       # number of ReadReq accesses(hits+misses)
system.dcache.ReadReq_accesses::total          201307                       # number of ReadReq accesses(hits+misses)
system.dcache.ReadReq_miss_rate::.cpu.data     0.012702                       # miss rate for ReadReq accesses
system.dcache.ReadReq_miss_rate::total       0.012702                       # miss rate for ReadReq accesses
[...]
system.dcache.tags.age_task_id_blocks_1024::4          198                       # Occupied blocks per task id
system.dcache.tags.occ_task_id_percent::1024            1                       # Percentage of cache occupancy per task id
system.dcache.tags.tag_accesses               2002005                       # Number of tag accesses
system.dcache.tags.data_accesses              2002005                       # Number of data accesses
system.dcache.tags.power_state.pwrStateResidencyTicks::UNDEFINED  23110660000                       # Cumulative time (in ticks) in various power states
system.cache_large.blocked_cycles::no_mshrs            0                       # number of cycles access was blocked
system.cache_large.blocked_cycles::no_targets            0                       # number of cycles access was blocked
system.cache_large.blocked::no_mshrs                0                       # number of cycles access was blocked
system.cache_large.blocked::no_targets              0                       # number of cycles access was blocked
system.cache_large.avg_blocked_cycles::no_mshrs          nan                       # average number of cycles each access was blocked
system.cache_large.avg_blocked_cycles::no_targets          nan                       # average number of cycles each access was blocked
system.cache_large.replacements                     0                       # number of replacements
system.cache_large.power_state.pwrStateResidencyTicks::UNDEFINED  23110660000                       # Cumulative time (in ticks) in various power states
system.cache_large.tags.tagsinuse                   0                       # Cycle average of tags in use
system.cache_large.tags.total_refs                  0                       # Total number of references to valid blocks.
system.cache_large.tags.sampled_refs                0                       # Sample count of references to valid blocks.
system.cache_large.tags.avg_refs                  nan                       # Average number of references to valid blocks.
system.cache_large.tags.warmup_cycle                0                       # Cycle when the warmup percentage was hit.
system.cache_large.tags.tag_accesses                0                       # Number of tag accesses
system.cache_large.tags.data_accesses               0                       # Number of data accesses
system.cache_large.tags.power_state.pwrStateResidencyTicks::UNDEFINED  23110660000                       # Cumulative time (in ticks) in various power states
system.l2cache.demand_hits::.cpu.inst            2935                       # number of demand (read+write) hits
system.l2cache.demand_hits::.cpu.data           14843                       # number of demand (read+write) hits
system.l2cache.demand_hits::total               17778                       # number of demand (read+write) hits
system.l2cache.overall_hits::.cpu.inst           2935                       # number of overall hits
system.l2cache.overall_hits::.cpu.data          14843                       # number of overall hits
system.l2cache.overall_hits::total              17778                       # number of overall hits
system.l2cache.demand_misses::.cpu.inst         17688                       # number of demand (read+write) misses
system.l2cache.demand_misses::.cpu.data         19023                       # number of demand (read+write) misses
system.l2cache.demand_misses::total             36711                       # number of demand (read+write) misses
system.l2cache.overall_misses::.cpu.inst        17688                       # number of overall misses
system.l2cache.overall_misses::.cpu.data        19023                       # number of overall misses
system.l2cache.overall_misses::total            36711                       # number of overall misses
system.l2cache.demand_miss_latency::.cpu.inst    356378000                       # number of demand (read+write) miss cycles
system.l2cache.demand_miss_latency::.cpu.data    315872000                       # number of demand (read+write) miss cycles
system.l2cache.demand_miss_latency::total    672250000                       # number of demand (read+write) miss cycles
system.l2cache.overall_miss_latency::.cpu.inst    356378000                       # number of overall miss cycles
system.l2cache.overall_miss_latency::.cpu.data    315872000                       # number of overall miss cycles
system.l2cache.overall_miss_latency::total    672250000                       # number of overall miss cycles
system.l2cache.demand_accesses::.cpu.inst        20623                       # number of demand (read+write) accesses
system.l2cache.demand_accesses::.cpu.data        33866                       # number of demand (read+write) accesses
system.l2cache.demand_accesses::total           54489                       # number of demand (read+write) accesses
system.l2cache.overall_accesses::.cpu.inst        20623                       # number of overall (read+write) accesses
system.l2cache.overall_accesses::.cpu.data        33866                       # number of overall (read+write) accesses
system.l2cache.overall_accesses::total          54489                       # number of overall (read+write) accesses
system.l2cache.demand_miss_rate::.cpu.inst     0.857683                       # miss rate for demand accesses
system.l2cache.demand_miss_rate::.cpu.data     0.561714                       # miss rate for demand accesses
system.l2cache.demand_miss_rate::total       0.673732                       # miss rate for demand accesses
system.l2cache.overall_miss_rate::.cpu.inst     0.857683                       # miss rate for overall accesses
system.l2cache.overall_miss_rate::.cpu.data     0.561714                       # miss rate for overall accesses
system.l2cache.overall_miss_rate::total      0.673732                       # miss rate for overall accesses
system.l2cache.demand_avg_miss_latency::.cpu.inst 20148.009950                       # average overall miss latency
system.l2cache.demand_avg_miss_latency::.cpu.data 16604.741629                       # average overall miss latency
system.l2cache.demand_avg_miss_latency::total 18311.950097                       # average overall miss latency
system.l2cache.overall_avg_miss_latency::.cpu.inst 20148.009950                       # average overall miss latency
system.l2cache.overall_avg_miss_latency::.cpu.data 16604.741629                       # average overall miss latency
system.l2cache.overall_avg_miss_latency::total 18311.950097                       # average overall miss latency
system.l2cache.blocked_cycles::no_mshrs             0                       # number of cycles access was blocked
system.l2cache.blocked_cycles::no_targets            0                       # number of cycles access was blocked
system.l2cache.blocked::no_mshrs                    0                       # number of cycles access was blocked
system.l2cache.blocked::no_targets                  0                       # number of cycles access was blocked
system.l2cache.avg_blocked_cycles::no_mshrs          nan                       # average number of cycles each access was blocked
system.l2cache.avg_blocked_cycles::no_targets          nan                       # average number of cycles each access was blocked
system.l2cache.writebacks::.writebacks           8962                       # number of writebacks
system.l2cache.writebacks::total                 8962                       # number of writebacks
system.l2cache.demand_mshr_misses::.cpu.inst        17688                       # number of demand (read+write) MSHR misses
system.l2cache.demand_mshr_misses::.cpu.data        19023                       # number of demand (read+write) MSHR misses
system.l2cache.demand_mshr_misses::total        36711                       # number of demand (read+write) MSHR misses
system.l2cache.overall_mshr_misses::.cpu.inst        17688                       # number of overall MSHR misses
system.l2cache.overall_mshr_misses::.cpu.data        19023                       # number of overall MSHR misses
system.l2cache.overall_mshr_misses::total        36711                       # number of overall MSHR misses
system.l2cache.demand_mshr_miss_latency::.cpu.inst    321002000                       # number of demand (read+write) MSHR miss cycles
system.l2cache.demand_mshr_miss_latency::.cpu.data    277826000                       # number of demand (read+write) MSHR miss cycles
system.l2cache.demand_mshr_miss_latency::total    598828000                       # number of demand (read+write) MSHR miss cycles
system.l2cache.overall_mshr_miss_latency::.cpu.inst    321002000                       # number of overall MSHR miss cycles
system.l2cache.overall_mshr_miss_latency::.cpu.data    277826000                       # number of overall MSHR miss cycles
system.l2cache.overall_mshr_miss_latency::total    598828000                       # number of overall MSHR miss cycles
system.l2cache.demand_mshr_miss_rate::.cpu.inst     0.857683                       # mshr miss rate for demand accesses
system.l2cache.demand_mshr_miss_rate::.cpu.data     0.561714                       # mshr miss rate for demand accesses
system.l2cache.demand_mshr_miss_rate::total     0.673732                       # mshr miss rate for demand accesses
system.l2cache.overall_mshr_miss_rate::.cpu.inst     0.857683                       # mshr miss rate for overall accesses
system.l2cache.overall_mshr_miss_rate::.cpu.data     0.561714                       # mshr miss rate for overall accesses
system.l2cache.overall_mshr_miss_rate::total     0.673732                       # mshr miss rate for overall accesses
system.l2cache.demand_avg_mshr_miss_latency::.cpu.inst 18148.009950                       # average overall mshr miss latency
system.l2cache.demand_avg_mshr_miss_latency::.cpu.data 14604.741629                       # average overall mshr miss latency
system.l2cache.demand_avg_mshr_miss_latency::total 16311.950097                       # average overall mshr miss latency
system.l2cache.overall_avg_mshr_miss_latency::.cpu.inst 18148.009950                       # average overall mshr miss latency
system.l2cache.overall_avg_mshr_miss_latency::.cpu.data 14604.741629                       # average overall mshr miss latency
system.l2cache.overall_avg_mshr_miss_latency::total 16311.950097                       # average overall mshr miss latency
system.l2cache.replacements                     44939                       # number of replacements
system.l2cache.ReadReq_hits::.cpu.inst           2935                       # number of ReadReq hits
system.l2cache.ReadReq_hits::.cpu.data          14843                       # number of ReadReq hits
system.l2cache.ReadReq_hits::total              17778                       # number of ReadReq hits
system.l2cache.ReadReq_misses::.cpu.inst        17688                       # number of ReadReq misses
system.l2cache.ReadReq_misses::.cpu.data        19023                       # number of ReadReq misses
system.l2cache.ReadReq_misses::total            36711                       # number of ReadReq misses
system.l2cache.ReadReq_miss_latency::.cpu.inst    356378000                       # number of ReadReq miss cycles
system.l2cache.ReadReq_miss_latency::.cpu.data    315872000                       # number of ReadReq miss cycles
system.l2cache.ReadReq_miss_latency::total    672250000                       # number of ReadReq miss cycles
system.l2cache.ReadReq_accesses::.cpu.inst        20623                       # number of ReadReq accesses(hits+misses)
system.l2cache.ReadReq_accesses::.cpu.data        33866                       # number of ReadReq accesses(hits+misses)
system.l2cache.ReadReq_accesses::total          54489                       # number of ReadReq accesses(hits+misses)
system.l2cache.ReadReq_miss_rate::.cpu.inst     0.857683                       # miss rate for ReadReq accesses
system.l2cache.ReadReq_miss_rate::.cpu.data     0.561714                       # miss rate for ReadReq accesses
system.l2cache.ReadReq_miss_rate::total      0.673732                       # miss rate for ReadReq accesses
system.l2cache.ReadReq_avg_miss_latency::.cpu.inst 20148.009950                       # average ReadReq miss latency
system.l2cache.ReadReq_avg_miss_latency::.cpu.data 16604.741629                       # average ReadReq miss latency
system.l2cache.ReadReq_avg_miss_latency::total 18311.950097                       # average ReadReq miss latency
system.l2cache.ReadReq_mshr_misses::.cpu.inst        17688                       # number of ReadReq MSHR misses
system.l2cache.ReadReq_mshr_misses::.cpu.data        19023                       # number of ReadReq MSHR misses
system.l2cache.ReadReq_mshr_misses::total        36711                       # number of ReadReq MSHR misses
system.l2cache.ReadReq_mshr_miss_latency::.cpu.inst    321002000                       # number of ReadReq MSHR miss cycles
system.l2cache.ReadReq_mshr_miss_latency::.cpu.data    277826000                       # number of ReadReq MSHR miss cycles
system.l2cache.ReadReq_mshr_miss_latency::total    598828000                       # number of ReadReq MSHR miss cycles
system.l2cache.ReadReq_mshr_miss_rate::.cpu.inst     0.857683                       # mshr miss rate for ReadReq accesses
system.l2cache.ReadReq_mshr_miss_rate::.cpu.data     0.561714                       # mshr miss rate for ReadReq accesses
system.l2cache.ReadReq_mshr_miss_rate::total     0.673732                       # mshr miss rate for ReadReq accesses
system.l2cache.ReadReq_avg_mshr_miss_latency::.cpu.inst 18148.009950                       # average ReadReq mshr miss latency
system.l2cache.ReadReq_avg_mshr_miss_latency::.cpu.data 14604.741629                       # average ReadReq mshr miss latency
system.l2cache.ReadReq_avg_mshr_miss_latency::total 16311.950097                       # average ReadReq mshr miss latency
system.l2cache.WritebackDirty_hits::.writebacks        15019                       # number of WritebackDirty hits
system.l2cache.WritebackDirty_hits::total        15019                       # number of WritebackDirty hits
system.l2cache.WritebackDirty_accesses::.writebacks        15019                       # number of WritebackDirty accesses(hits+misses)
system.l2cache.WritebackDirty_accesses::total        15019                       # number of WritebackDirty accesses(hits+misses)
system.l2cache.power_state.pwrStateResidencyTicks::UNDEFINED  23110660000                       # Cumulative time (in ticks) in various power states
system.l2cache.tags.tagsinuse              510.167500                       # Cycle average of tags in use
system.l2cache.tags.total_refs                  69508                       # Total number of references to valid blocks.
system.l2cache.tags.sampled_refs                45451                       # Sample count of references to valid blocks.
system.l2cache.tags.avg_refs                 1.529295                       # Average number of references to valid blocks.
system.l2cache.tags.warmup_cycle                78000                       # Cycle when the warmup percentage was hit.
system.l2cache.tags.occ_blocks::.writebacks    21.889267                       # Average occupied blocks per requestor
system.l2cache.tags.occ_blocks::.cpu.inst   468.788234                       # Average occupied blocks per requestor
system.l2cache.tags.occ_blocks::.cpu.data    19.489999                       # Average occupied blocks per requestor
system.l2cache.tags.occ_percent::.writebacks     0.042752                       # Average percentage of cache occupancy
system.l2cache.tags.occ_percent::.cpu.inst     0.915602                       # Average percentage of cache occupancy
system.l2cache.tags.occ_percent::.cpu.data     0.038066                       # Average percentage of cache occupancy
system.l2cache.tags.occ_percent::total       0.996421                       # Average percentage of cache occupancy
system.l2cache.tags.occ_task_id_blocks::1024          512                       # Occupied blocks per task id
system.l2cache.tags.age_task_id_blocks_1024::0            8                       # Occupied blocks per task id
system.l2cache.tags.age_task_id_blocks_1024::1           31                       # Occupied blocks per task id
system.l2cache.tags.age_task_id_blocks_1024::2           13                       # Occupied blocks per task id
system.l2cache.tags.age_task_id_blocks_1024::3          418                       # Occupied blocks per task id
system.l2cache.tags.age_task_id_blocks_1024::4           42                       # Occupied blocks per task id
system.l2cache.tags.occ_task_id_percent::1024            1                       # Percentage of cache occupancy per task id
system.l2cache.tags.tag_accesses               114959                       # Number of tag accesses
system.l2cache.tags.data_accesses              114959                       # Number of data accesses
system.l2cache.tags.power_state.pwrStateResidencyTicks::UNDEFINED  23110660000                       # Cumulative time (in ticks) in various power states
system.l2bar.trans_dist::ReadReq                54489                       # Transaction distribution
system.l2bar.trans_dist::ReadResp               54489                       # Transaction distribution
system.l2bar.trans_dist::WritebackDirty         15019                       # Transaction distribution
system.l2bar.pkt_count_system.dcache.mem_side::system.l2cache.cpu_side        82751                       # Packet count per connected master and slave (bytes)
system.l2bar.pkt_count_system.icache.mem_side::system.l2cache.cpu_side        41246                       # Packet count per connected master and slave (bytes)
system.l2bar.pkt_count::total                  123997                       # Packet count per connected master and slave (bytes)
system.l2bar.pkt_size_system.dcache.mem_side::system.l2cache.cpu_side      3128640                       # Cumulative packet size per connected master and slave (bytes)
system.l2bar.pkt_size_system.icache.mem_side::system.l2cache.cpu_side      1319872                       # Cumulative packet size per connected master and slave (bytes)
system.l2bar.pkt_size::total                  4448512                       # Cumulative packet size per connected master and slave (bytes)
system.l2bar.respLayer1.occupancy           103115000                       # Layer occupancy (ticks)
system.l2bar.respLayer1.utilization               0.4                       # Layer utilization (%)
system.l2bar.reqLayer0.occupancy            129584000                       # Layer occupancy (ticks)
system.l2bar.reqLayer0.utilization                0.6                       # Layer utilization (%)
system.l2bar.respLayer0.occupancy           169330000                       # Layer occupancy (ticks)
system.l2bar.respLayer0.utilization               0.7                       # Layer utilization (%)
system.l2bar.power_state.pwrStateResidencyTicks::UNDEFINED  23110660000                       # Cumulative time (in ticks) in various power states
system.cpu.dtb.walker.power_state.pwrStateResidencyTicks::UNDEFINED  23110660000                       # Cumulative time (in ticks) in various power states
system.cpu.interrupts.clk_domain.clock          16000                       # Clock period in ticks
system.cpu.itb.walker.power_state.pwrStateResidencyTicks::UNDEFINED  23110660000                       # Cumulative time (in ticks) in various power states
system.cpu.power_state.numTransitions               1                       # Number of power state transitions
system.cpu.power_state.pwrStateResidencyTicks::ON  23110660000                       # Cumulative time (in ticks) in various power states

---------- End Simulation Statistics   ----------
