
---------- Begin Simulation Statistics ----------
final_tick                               7530410693000                       # Number of ticks from beginning of simulation (restored from checkpoints and never reset)
host_inst_rate                                 957006                       # Simulator instruction rate (inst/s)
host_mem_usage                                1056476                       # Number of bytes of host memory used
host_op_rate                                  1713622                       # Simulator op (including micro ops) rate (op/s)
host_seconds                                   104.49                       # Real time elapsed on the host
host_tick_rate                              955839766                       # Simulator tick rate (ticks/s)
sim_freq                                 1000000000000                       # Frequency of simulated ticks
sim_insts                                   100000000                       # Number of instructions simulated
sim_ops                                     179061013                       # Number of ops (including micro ops) simulated
sim_seconds                                  0.099878                       # Number of seconds simulated
sim_ticks                                 99878319000                       # Number of ticks simulated
system.cpu.Branches                          14736873                       # Number of branches fetched
system.cpu.committedInsts                    88093758                       # Number of instructions committed
system.cpu.committedOps                     151104638                       # Number of ops (including micro ops) committed
system.cpu.dtb.rdAccesses                    14216636                       # TLB accesses on read requests
system.cpu.dtb.rdMisses                        436060                       # TLB misses on read requests
system.cpu.dtb.wrAccesses                    41384336                       # TLB accesses on write requests
system.cpu.dtb.wrMisses                        155801                       # TLB misses on write requests
system.cpu.idle_fraction                     0.073194                       # Percentage of idle cycles
system.cpu.itb.rdAccesses                           0                       # TLB accesses on read requests
system.cpu.itb.rdMisses                             0                       # TLB misses on read requests
system.cpu.itb.wrAccesses                   122156779                       # TLB accesses on write requests
system.cpu.itb.wrMisses                         31416                       # TLB misses on write requests
system.cpu.kern.inst.arm                            0                       # number of arm instructions executed
system.cpu.kern.inst.quiesce                        0                       # number of quiesce instructions executed
system.cpu.not_idle_fraction                 0.926806                       # Percentage of non-idle cycles
system.cpu.numCycles                        199819958                       # number of cpu cycles simulated
system.cpu.numWorkItemsCompleted                    0                       # number of work items this cpu completed
system.cpu.numWorkItemsStarted                      0                       # number of work items this cpu started
system.cpu.num_busy_cycles               185194265.327673                       # Number of busy cycles
system.cpu.num_cc_register_reads             79919461                       # number of times the CC registers were read
system.cpu.num_cc_register_writes            39650879                       # number of times the CC registers were written
system.cpu.num_conditional_control_insts     11874767                       # number of instructions that are conditional controls
system.cpu.num_fp_alu_accesses               15116549                       # Number of float alu accesses
system.cpu.num_fp_insts                      15116549                       # number of float instructions
system.cpu.num_fp_register_reads             15117007                       # number of times the floating registers were read
system.cpu.num_fp_register_writes                1103                       # number of times the floating registers were written
system.cpu.num_func_calls                     1903647                       # number of times a function call or return occured
system.cpu.num_idle_cycles               14625692.672327                       # Number of idle cycles
system.cpu.num_int_alu_accesses             146947849                       # Number of integer alu accesses
system.cpu.num_int_insts                    146947849                       # number of integer instructions
system.cpu.num_int_register_reads           334463862                       # number of times the integer registers were read
system.cpu.num_int_register_writes           93972329                       # number of times the integer registers were written
system.cpu.num_load_insts                    14216696                       # Number of load instructions
system.cpu.num_mem_refs                      55601199                       # number of memory refs
system.cpu.num_store_insts                   41384503                       # Number of store instructions
system.cpu.num_vec_alu_accesses                     0                       # Number of vector alu accesses
system.cpu.num_vec_insts                            0                       # number of vector instructions
system.cpu.num_vec_register_reads                   0                       # number of times the vector registers were read
system.cpu.num_vec_register_writes                  0                       # number of times the vector registers were written
system.cpu.op_class::No_OpClass               3003725      1.99%      1.99% # Class of executed instruction
system.cpu.op_class::IntAlu                  92266936     61.05%     63.04% # Class of executed instruction
system.cpu.op_class::IntMult                   256608      0.17%     63.21% # Class of executed instruction
system.cpu.op_class::IntDiv                      6220      0.00%     63.21% # Class of executed instruction
system.cpu.op_class::FloatAdd                      74      0.00%     63.21% # Class of executed instruction
system.cpu.op_class::FloatCmp                       0      0.00%     63.21% # Class of executed instruction
system.cpu.op_class::FloatCvt                     240      0.00%     63.21% # Class of executed instruction
system.cpu.op_class::FloatMult                      0      0.00%     63.21% # Class of executed instruction
system.cpu.op_class::FloatMultAcc                   0      0.00%     63.21% # Class of executed instruction
system.cpu.op_class::FloatDiv                       0      0.00%     63.21% # Class of executed instruction
system.cpu.op_class::FloatMisc                      0      0.00%     63.21% # Class of executed instruction
system.cpu.op_class::FloatSqrt                      0      0.00%     63.21% # Class of executed instruction
system.cpu.op_class::SimdAdd                       20      0.00%     63.21% # Class of executed instruction
system.cpu.op_class::SimdAddAcc                     0      0.00%     63.21% # Class of executed instruction
system.cpu.op_class::SimdAlu                      208      0.00%     63.21% # Class of executed instruction
system.cpu.op_class::SimdCmp                        0      0.00%     63.21% # Class of executed instruction
system.cpu.op_class::SimdCvt                      210      0.00%     63.21% # Class of executed instruction
system.cpu.op_class::SimdMisc                     287      0.00%     63.21% # Class of executed instruction
system.cpu.op_class::SimdMult                       0      0.00%     63.21% # Class of executed instruction
system.cpu.op_class::SimdMultAcc                    0      0.00%     63.21% # Class of executed instruction
system.cpu.op_class::SimdShift                     13      0.00%     63.21% # Class of executed instruction
system.cpu.op_class::SimdShiftAcc                   0      0.00%     63.21% # Class of executed instruction
system.cpu.op_class::SimdDiv                        0      0.00%     63.21% # Class of executed instruction
system.cpu.op_class::SimdSqrt                       0      0.00%     63.21% # Class of executed instruction
system.cpu.op_class::SimdFloatAdd                   0      0.00%     63.21% # Class of executed instruction
system.cpu.op_class::SimdFloatAlu                   0      0.00%     63.21% # Class of executed instruction
system.cpu.op_class::SimdFloatCmp                   0      0.00%     63.21% # Class of executed instruction
system.cpu.op_class::SimdFloatCvt                   2      0.00%     63.21% # Class of executed instruction
system.cpu.op_class::SimdFloatDiv                   0      0.00%     63.21% # Class of executed instruction
system.cpu.op_class::SimdFloatMisc                  0      0.00%     63.21% # Class of executed instruction
system.cpu.op_class::SimdFloatMult                  0      0.00%     63.21% # Class of executed instruction
system.cpu.op_class::SimdFloatMultAcc               0      0.00%     63.21% # Class of executed instruction
system.cpu.op_class::SimdFloatSqrt                  0      0.00%     63.21% # Class of executed instruction
system.cpu.op_class::SimdReduceAdd                  0      0.00%     63.21% # Class of executed instruction
system.cpu.op_class::SimdReduceAlu                  0      0.00%     63.21% # Class of executed instruction
system.cpu.op_class::SimdReduceCmp                  0      0.00%     63.21% # Class of executed instruction
system.cpu.op_class::SimdFloatReduceAdd             0      0.00%     63.21% # Class of executed instruction
system.cpu.op_class::SimdFloatReduceCmp             0      0.00%     63.21% # Class of executed instruction
system.cpu.op_class::SimdAes                        0      0.00%     63.21% # Class of executed instruction
system.cpu.op_class::SimdAesMix                     0      0.00%     63.21% # Class of executed instruction
system.cpu.op_class::SimdSha1Hash                   0      0.00%     63.21% # Class of executed instruction
system.cpu.op_class::SimdSha1Hash2                  0      0.00%     63.21% # Class of executed instruction
system.cpu.op_class::SimdSha256Hash                 0      0.00%     63.21% # Class of executed instruction
system.cpu.op_class::SimdSha256Hash2                0      0.00%     63.21% # Class of executed instruction
system.cpu.op_class::SimdShaSigma2                  0      0.00%     63.21% # Class of executed instruction
system.cpu.op_class::SimdShaSigma3                  0      0.00%     63.21% # Class of executed instruction
system.cpu.op_class::SimdPredAlu                    0      0.00%     63.21% # Class of executed instruction
system.cpu.op_class::MemRead                 14216342      9.41%     72.62% # Class of executed instruction
system.cpu.op_class::MemWrite                26269439     17.38%     90.00% # Class of executed instruction
system.cpu.op_class::FloatMemRead                 354      0.00%     90.00% # Class of executed instruction
system.cpu.op_class::FloatMemWrite           15115064     10.00%    100.00% # Class of executed instruction
system.cpu.op_class::IprAccess                      0      0.00%    100.00% # Class of executed instruction
system.cpu.op_class::InstPrefetch                   0      0.00%    100.00% # Class of executed instruction
system.cpu.op_class::total                  151135742                       # Class of executed instruction
system.membus.snoop_filter.hit_multi_requests            0                       # Number of requests hitting in the snoop filter with multiple (>1) holders of the requested data.
system.membus.snoop_filter.hit_multi_snoops            0                       # Number of snoops hitting in the snoop filter with multiple (>1) holders of the requested data.
system.membus.snoop_filter.hit_single_requests            0                       # Number of requests hitting in the snoop filter with a single holder of the requested data.
system.membus.snoop_filter.hit_single_snoops            0                       # Number of snoops hitting in the snoop filter with a single holder of the requested data.
system.membus.snoop_filter.tot_requests             0                       # Total number of requests made to the snoop filter.
system.membus.snoop_filter.tot_snoops               0                       # Total number of snoops made to the snoop filter.
system.pc.south_bridge.ide.disks.dma_read_bytes            0                       # Number of bytes transfered via DMA reads (not PRD).
system.pc.south_bridge.ide.disks.dma_read_full_pages            0                       # Number of full page size DMA reads (not PRD).
system.pc.south_bridge.ide.disks.dma_read_txs            0                       # Number of DMA read transactions (not PRD).
system.pc.south_bridge.ide.disks.dma_write_bytes       925696                       # Number of bytes transfered via DMA writes.
system.pc.south_bridge.ide.disks.dma_write_full_pages          226                       # Number of full page size DMA writes.
system.pc.south_bridge.ide.disks.dma_write_txs          226                       # Number of DMA write transactions.
system.bridge.power_state.pwrStateResidencyTicks::UNDEFINED 7530410693000                       # Cumulative time (in ticks) in various power states
system.voltage_domain.voltage                       1                       # Voltage in Volts
system.membus.trans_dist::ReadReq           138607169                       # Transaction distribution
system.membus.trans_dist::ReadResp          138607169                       # Transaction distribution
system.membus.trans_dist::WriteReq           41367880                       # Transaction distribution
system.membus.trans_dist::WriteResp          41367880                       # Transaction distribution
system.membus.trans_dist::SoftPFReq             32100                       # Transaction distribution
system.membus.trans_dist::SoftPFResp            32100                       # Transaction distribution
system.membus.pkt_count_system.apicbridge.master::system.cpu.interrupts.int_slave           22                       # Packet count per connected master and slave (bytes)
system.membus.pkt_count_system.apicbridge.master::total           22                       # Packet count per connected master and slave (bytes)
system.membus.pkt_count_system.iobridge.master::system.mem_ctrls.port        29036                       # Packet count per connected master and slave (bytes)
system.membus.pkt_count_system.iobridge.master::total        29036                       # Packet count per connected master and slave (bytes)
system.membus.pkt_count_system.cpu.icache_port::system.mem_ctrls.port    244313516                       # Packet count per connected master and slave (bytes)
system.membus.pkt_count_system.cpu.icache_port::total    244313516                       # Packet count per connected master and slave (bytes)
system.membus.pkt_count_system.cpu.dcache_port::system.bridge.slave          506                       # Packet count per connected master and slave (bytes)
system.membus.pkt_count_system.cpu.dcache_port::system.cpu.interrupts.pio          222                       # Packet count per connected master and slave (bytes)
system.membus.pkt_count_system.cpu.dcache_port::system.mem_ctrls.port    111139492                       # Packet count per connected master and slave (bytes)
system.membus.pkt_count_system.cpu.dcache_port::total    111140220                       # Packet count per connected master and slave (bytes)
system.membus.pkt_count_system.cpu.itb.walker.port::system.mem_ctrls.port       251322                       # Packet count per connected master and slave (bytes)
system.membus.pkt_count_system.cpu.itb.walker.port::total       251322                       # Packet count per connected master and slave (bytes)
system.membus.pkt_count_system.cpu.dtb.walker.port::system.mem_ctrls.port      4280182                       # Packet count per connected master and slave (bytes)
system.membus.pkt_count_system.cpu.dtb.walker.port::total      4280182                       # Packet count per connected master and slave (bytes)
system.membus.pkt_count::total              360014298                       # Packet count per connected master and slave (bytes)
system.membus.pkt_size_system.apicbridge.master::system.cpu.interrupts.int_slave           44                       # Cumulative packet size per connected master and slave (bytes)
system.membus.pkt_size_system.apicbridge.master::total           44                       # Cumulative packet size per connected master and slave (bytes)
system.membus.pkt_size_system.iobridge.master::system.mem_ctrls.port       926128                       # Cumulative packet size per connected master and slave (bytes)
system.membus.pkt_size_system.iobridge.master::total       926128                       # Cumulative packet size per connected master and slave (bytes)
system.membus.pkt_size_system.cpu.icache_port::system.mem_ctrls.port    977254064                       # Cumulative packet size per connected master and slave (bytes)
system.membus.pkt_size_system.cpu.icache_port::total    977254064                       # Cumulative packet size per connected master and slave (bytes)
system.membus.pkt_size_system.cpu.dcache_port::system.bridge.slave          286                       # Cumulative packet size per connected master and slave (bytes)
system.membus.pkt_size_system.cpu.dcache_port::system.cpu.interrupts.pio          444                       # Cumulative packet size per connected master and slave (bytes)
system.membus.pkt_size_system.cpu.dcache_port::system.mem_ctrls.port    408157220                       # Cumulative packet size per connected master and slave (bytes)
system.membus.pkt_size_system.cpu.dcache_port::total    408157950                       # Cumulative packet size per connected master and slave (bytes)
system.membus.pkt_size_system.cpu.itb.walker.port::system.mem_ctrls.port      1005288                       # Cumulative packet size per connected master and slave (bytes)
system.membus.pkt_size_system.cpu.itb.walker.port::total      1005288                       # Cumulative packet size per connected master and slave (bytes)
system.membus.pkt_size_system.cpu.dtb.walker.port::system.mem_ctrls.port     17120728                       # Cumulative packet size per connected master and slave (bytes)
system.membus.pkt_size_system.cpu.dtb.walker.port::total     17120728                       # Cumulative packet size per connected master and slave (bytes)
system.membus.pkt_size::total              1404464202                       # Cumulative packet size per connected master and slave (bytes)
system.membus.snoops                                0                       # Total snoops (count)
system.membus.snoopTraffic                          0                       # Total snoop traffic (bytes)
system.membus.snoop_fanout::samples         180007149                       # Request fanout histogram
system.membus.snoop_fanout::mean                    0                       # Request fanout histogram
system.membus.snoop_fanout::stdev                   0                       # Request fanout histogram
system.membus.snoop_fanout::underflows              0      0.00%      0.00% # Request fanout histogram
system.membus.snoop_fanout::0               180007149    100.00%    100.00% # Request fanout histogram
system.membus.snoop_fanout::1                       0      0.00%    100.00% # Request fanout histogram
system.membus.snoop_fanout::overflows               0      0.00%    100.00% # Request fanout histogram
system.membus.snoop_fanout::min_value               0                       # Request fanout histogram
system.membus.snoop_fanout::max_value               0                       # Request fanout histogram
system.membus.snoop_fanout::total           180007149                       # Request fanout histogram
system.membus.badaddr_responder.power_state.pwrStateResidencyTicks::UNDEFINED 7530410693000                       # Cumulative time (in ticks) in various power states
system.membus.power_state.pwrStateResidencyTicks::UNDEFINED 7530410693000                       # Cumulative time (in ticks) in various power states
system.iobridge.power_state.pwrStateResidencyTicks::UNDEFINED 7530410693000                       # Cumulative time (in ticks) in various power states
system.clk_domain.clock                          1000                       # Clock period in ticks
system.apicbridge.power_state.pwrStateResidencyTicks::UNDEFINED 7530410693000                       # Cumulative time (in ticks) in various power states
system.pc.fake_com_4.power_state.pwrStateResidencyTicks::UNDEFINED 7530410693000                       # Cumulative time (in ticks) in various power states
system.pc.fake_com_2.power_state.pwrStateResidencyTicks::UNDEFINED 7530410693000                       # Cumulative time (in ticks) in various power states
system.pc.fake_com_3.power_state.pwrStateResidencyTicks::UNDEFINED 7530410693000                       # Cumulative time (in ticks) in various power states
system.pc.south_bridge.io_apic.power_state.pwrStateResidencyTicks::UNDEFINED 7530410693000                       # Cumulative time (in ticks) in various power states
system.pc.south_bridge.pic1.power_state.pwrStateResidencyTicks::UNDEFINED 7530410693000                       # Cumulative time (in ticks) in various power states
system.pc.south_bridge.pic2.power_state.pwrStateResidencyTicks::UNDEFINED 7530410693000                       # Cumulative time (in ticks) in various power states
system.pc.south_bridge.dma1.power_state.pwrStateResidencyTicks::UNDEFINED 7530410693000                       # Cumulative time (in ticks) in various power states
system.pc.south_bridge.speaker.power_state.pwrStateResidencyTicks::UNDEFINED 7530410693000                       # Cumulative time (in ticks) in various power states
system.pc.south_bridge.keyboard.power_state.pwrStateResidencyTicks::UNDEFINED 7530410693000                       # Cumulative time (in ticks) in various power states
system.pc.south_bridge.ide.power_state.pwrStateResidencyTicks::UNDEFINED 7530410693000                       # Cumulative time (in ticks) in various power states
system.pc.south_bridge.pit.power_state.pwrStateResidencyTicks::UNDEFINED 7530410693000                       # Cumulative time (in ticks) in various power states
system.pc.south_bridge.cmos.power_state.pwrStateResidencyTicks::UNDEFINED 7530410693000                       # Cumulative time (in ticks) in various power states
system.pc.i_dont_exist2.power_state.pwrStateResidencyTicks::UNDEFINED 7530410693000                       # Cumulative time (in ticks) in various power states
system.pc.i_dont_exist1.power_state.pwrStateResidencyTicks::UNDEFINED 7530410693000                       # Cumulative time (in ticks) in various power states
system.pc.com_1.power_state.pwrStateResidencyTicks::UNDEFINED 7530410693000                       # Cumulative time (in ticks) in various power states
system.pc.fake_floppy.power_state.pwrStateResidencyTicks::UNDEFINED 7530410693000                       # Cumulative time (in ticks) in various power states
system.pc.behind_pci.power_state.pwrStateResidencyTicks::UNDEFINED 7530410693000                       # Cumulative time (in ticks) in various power states
system.pc.pci_host.power_state.pwrStateResidencyTicks::UNDEFINED 7530410693000                       # Cumulative time (in ticks) in various power states
system.cpu_voltage_domain.voltage                   1                       # Voltage in Volts
system.mem_ctrls.bytes_read::.cpu.dtb.walker     17120728                       # Number of bytes read from this memory
system.mem_ctrls.bytes_read::.cpu.itb.walker      1005288                       # Number of bytes read from this memory
system.mem_ctrls.bytes_read::.cpu.inst      977254064                       # Number of bytes read from this memory
system.mem_ctrls.bytes_read::.cpu.data       95641727                       # Number of bytes read from this memory
system.mem_ctrls.bytes_read::.pc.south_bridge.ide          432                       # Number of bytes read from this memory
system.mem_ctrls.bytes_read::total         1091022239                       # Number of bytes read from this memory
system.mem_ctrls.bytes_inst_read::.cpu.inst    977254064                       # Number of instructions bytes read from this memory
system.mem_ctrls.bytes_inst_read::total     977254064                       # Number of instructions bytes read from this memory
system.mem_ctrls.bytes_written::.cpu.data    312515493                       # Number of bytes written to this memory
system.mem_ctrls.bytes_written::.pc.south_bridge.ide       925696                       # Number of bytes written to this memory
system.mem_ctrls.bytes_written::total       313441189                       # Number of bytes written to this memory
system.mem_ctrls.num_reads::.cpu.dtb.walker      2140091                       # Number of read requests responded to by this memory
system.mem_ctrls.num_reads::.cpu.itb.walker       125661                       # Number of read requests responded to by this memory
system.mem_ctrls.num_reads::.cpu.inst       122156758                       # Number of read requests responded to by this memory
system.mem_ctrls.num_reads::.cpu.data        14216617                       # Number of read requests responded to by this memory
system.mem_ctrls.num_reads::.pc.south_bridge.ide           54                       # Number of read requests responded to by this memory
system.mem_ctrls.num_reads::total           138639181                       # Number of read requests responded to by this memory
system.mem_ctrls.num_writes::.cpu.data       41353129                       # Number of write requests responded to by this memory
system.mem_ctrls.num_writes::.pc.south_bridge.ide        14464                       # Number of write requests responded to by this memory
system.mem_ctrls.num_writes::total           41367593                       # Number of write requests responded to by this memory
system.mem_ctrls.bw_read::.cpu.dtb.walker    171415861                       # Total read bandwidth from this memory (bytes/s)
system.mem_ctrls.bw_read::.cpu.itb.walker     10065127                       # Total read bandwidth from this memory (bytes/s)
system.mem_ctrls.bw_read::.cpu.inst        9784446452                       # Total read bandwidth from this memory (bytes/s)
system.mem_ctrls.bw_read::.cpu.data         957582466                       # Total read bandwidth from this memory (bytes/s)
system.mem_ctrls.bw_read::.pc.south_bridge.ide         4325                       # Total read bandwidth from this memory (bytes/s)
system.mem_ctrls.bw_read::total           10923514231                       # Total read bandwidth from this memory (bytes/s)
system.mem_ctrls.bw_inst_read::.cpu.inst   9784446452                       # Instruction read bandwidth from this memory (bytes/s)
system.mem_ctrls.bw_inst_read::total       9784446452                       # Instruction read bandwidth from this memory (bytes/s)
system.mem_ctrls.bw_write::.cpu.data       3128962283                       # Write bandwidth from this memory (bytes/s)
system.mem_ctrls.bw_write::.pc.south_bridge.ide      9268238                       # Write bandwidth from this memory (bytes/s)
system.mem_ctrls.bw_write::total           3138230520                       # Write bandwidth from this memory (bytes/s)
system.mem_ctrls.bw_total::.cpu.dtb.walker    171415861                       # Total bandwidth to/from this memory (bytes/s)
system.mem_ctrls.bw_total::.cpu.itb.walker     10065127                       # Total bandwidth to/from this memory (bytes/s)
system.mem_ctrls.bw_total::.cpu.inst       9784446452                       # Total bandwidth to/from this memory (bytes/s)
system.mem_ctrls.bw_total::.cpu.data       4086544749                       # Total bandwidth to/from this memory (bytes/s)
system.mem_ctrls.bw_total::.pc.south_bridge.ide      9272563                       # Total bandwidth to/from this memory (bytes/s)
system.mem_ctrls.bw_total::total          14061744752                       # Total bandwidth to/from this memory (bytes/s)
system.mem_ctrls.priorityMinLatency      0.000000000000                       # per QoS priority minimum request to response latency (s)
system.mem_ctrls.priorityMaxLatency      0.000000000000                       # per QoS priority maximum request to response latency (s)
system.mem_ctrls.numReadWriteTurnArounds            0                       # Number of turnarounds from READ to WRITE
system.mem_ctrls.numWriteReadTurnArounds            0                       # Number of turnarounds from WRITE to READ
system.mem_ctrls.numStayReadState                   0                       # Number of times bus staying in READ state
system.mem_ctrls.numStayWriteState                  0                       # Number of times bus staying in WRITE state
system.mem_ctrls.readReqs                           0                       # Number of read requests accepted
system.mem_ctrls.writeReqs                          0                       # Number of write requests accepted
system.mem_ctrls.readBursts                         0                       # Number of DRAM read bursts, including those serviced by the write queue
system.mem_ctrls.writeBursts                        0                       # Number of DRAM write bursts, including those merged in the write queue
system.mem_ctrls.servicedByWrQ                      0                       # Number of DRAM read bursts serviced by the write queue
system.mem_ctrls.mergedWrBursts                     0                       # Number of DRAM write bursts merged with an existing one
system.mem_ctrls.neitherReadNorWriteReqs            0                       # Number of requests that are neither read nor write
system.mem_ctrls.perBankRdBursts::0                 0                       # Per bank write bursts
system.mem_ctrls.perBankRdBursts::1                 0                       # Per bank write bursts
system.mem_ctrls.perBankRdBursts::2                 0                       # Per bank write bursts
system.mem_ctrls.perBankRdBursts::3                 0                       # Per bank write bursts
system.mem_ctrls.perBankRdBursts::4                 0                       # Per bank write bursts
system.mem_ctrls.perBankRdBursts::5                 0                       # Per bank write bursts
system.mem_ctrls.perBankRdBursts::6                 0                       # Per bank write bursts
system.mem_ctrls.perBankRdBursts::7                 0                       # Per bank write bursts
system.mem_ctrls.perBankRdBursts::8                 0                       # Per bank write bursts
system.mem_ctrls.perBankRdBursts::9                 0                       # Per bank write bursts
system.mem_ctrls.perBankRdBursts::10                0                       # Per bank write bursts
system.mem_ctrls.perBankRdBursts::11                0                       # Per bank write bursts
system.mem_ctrls.perBankRdBursts::12                0                       # Per bank write bursts
system.mem_ctrls.perBankRdBursts::13                0                       # Per bank write bursts
system.mem_ctrls.perBankRdBursts::14                0                       # Per bank write bursts
system.mem_ctrls.perBankRdBursts::15                0                       # Per bank write bursts
system.mem_ctrls.perBankWrBursts::0                 0                       # Per bank write bursts
system.mem_ctrls.perBankWrBursts::1                 0                       # Per bank write bursts
system.mem_ctrls.perBankWrBursts::2                 0                       # Per bank write bursts
system.mem_ctrls.perBankWrBursts::3                 0                       # Per bank write bursts
system.mem_ctrls.perBankWrBursts::4                 0                       # Per bank write bursts
system.mem_ctrls.perBankWrBursts::5                 0                       # Per bank write bursts
system.mem_ctrls.perBankWrBursts::6                 0                       # Per bank write bursts
system.mem_ctrls.perBankWrBursts::7                 0                       # Per bank write bursts
system.mem_ctrls.perBankWrBursts::8                 0                       # Per bank write bursts
system.mem_ctrls.perBankWrBursts::9                 0                       # Per bank write bursts
system.mem_ctrls.perBankWrBursts::10                0                       # Per bank write bursts
system.mem_ctrls.perBankWrBursts::11                0                       # Per bank write bursts
system.mem_ctrls.perBankWrBursts::12                0                       # Per bank write bursts
system.mem_ctrls.perBankWrBursts::13                0                       # Per bank write bursts
system.mem_ctrls.perBankWrBursts::14                0                       # Per bank write bursts
system.mem_ctrls.perBankWrBursts::15                0                       # Per bank write bursts
system.mem_ctrls.avgRdQLen                       0.00                       # Average read queue length when enqueuing
system.mem_ctrls.avgWrQLen                       0.00                       # Average write queue length when enqueuing
system.mem_ctrls.totQLat                            0                       # Total ticks spent queuing
system.mem_ctrls.totBusLat                          0                       # Total ticks spent in databus transfers
system.mem_ctrls.totMemAccLat                       0                       # Total ticks spent from burst creation until serviced by the DRAM
system.mem_ctrls.avgQLat                          nan                       # Average queueing delay per DRAM burst
system.mem_ctrls.avgBusLat                        nan                       # Average bus latency per DRAM burst
system.mem_ctrls.avgMemAccLat                     nan                       # Average memory access latency per DRAM burst
system.mem_ctrls.numRdRetry                         0                       # Number of times read queue was full causing retry
system.mem_ctrls.numWrRetry                         0                       # Number of times write queue was full causing retry
system.mem_ctrls.readRowHits                        0                       # Number of row buffer hits during reads
system.mem_ctrls.writeRowHits                       0                       # Number of row buffer hits during writes
system.mem_ctrls.readRowHitRate                   nan                       # Row buffer hit rate for reads
system.mem_ctrls.writeRowHitRate                  nan                       # Row buffer hit rate for writes
system.mem_ctrls.readPktSize::0                     0                       # Read request sizes (log2)
system.mem_ctrls.readPktSize::1                     0                       # Read request sizes (log2)
system.mem_ctrls.readPktSize::2                     0                       # Read request sizes (log2)
system.mem_ctrls.readPktSize::3                     0                       # Read request sizes (log2)
system.mem_ctrls.readPktSize::4                     0                       # Read request sizes (log2)
system.mem_ctrls.readPktSize::5                     0                       # Read request sizes (log2)
system.mem_ctrls.readPktSize::6                     0                       # Read request sizes (log2)
system.mem_ctrls.writePktSize::0                    0                       # Write request sizes (log2)
system.mem_ctrls.writePktSize::1                    0                       # Write request sizes (log2)
system.mem_ctrls.writePktSize::2                    0                       # Write request sizes (log2)
system.mem_ctrls.writePktSize::3                    0                       # Write request sizes (log2)
system.mem_ctrls.writePktSize::4                    0                       # Write request sizes (log2)
system.mem_ctrls.writePktSize::5                    0                       # Write request sizes (log2)
system.mem_ctrls.writePktSize::6                    0                       # Write request sizes (log2)
system.mem_ctrls.rdQLenPdf::0                       0                       # What read queue length does an incoming req see
system.mem_ctrls.rdQLenPdf::1                       0                       # What read queue length does an incoming req see
system.mem_ctrls.rdQLenPdf::2                       0                       # What read queue length does an incoming req see
system.mem_ctrls.rdQLenPdf::3                       0                       # What read queue length does an incoming req see
system.mem_ctrls.rdQLenPdf::4                       0                       # What read queue length does an incoming req see
system.mem_ctrls.rdQLenPdf::5                       0                       # What read queue length does an incoming req see
system.mem_ctrls.rdQLenPdf::6                       0                       # What read queue length does an incoming req see
system.mem_ctrls.rdQLenPdf::7                       0                       # What read queue length does an incoming req see
system.mem_ctrls.rdQLenPdf::8                       0                       # What read queue length does an incoming req see
system.mem_ctrls.rdQLenPdf::9                       0                       # What read queue length does an incoming req see
system.mem_ctrls.rdQLenPdf::10                      0                       # What read queue length does an incoming req see
system.mem_ctrls.rdQLenPdf::11                      0                       # What read queue length does an incoming req see
system.mem_ctrls.rdQLenPdf::12                      0                       # What read queue length does an incoming req see
system.mem_ctrls.rdQLenPdf::13                      0                       # What read queue length does an incoming req see
system.mem_ctrls.rdQLenPdf::14                      0                       # What read queue length does an incoming req see
system.mem_ctrls.rdQLenPdf::15                      0                       # What read queue length does an incoming req see
system.mem_ctrls.rdQLenPdf::16                      0                       # What read queue length does an incoming req see
system.mem_ctrls.rdQLenPdf::17                      0                       # What read queue length does an incoming req see
system.mem_ctrls.rdQLenPdf::18                      0                       # What read queue length does an incoming req see
system.mem_ctrls.rdQLenPdf::19                      0                       # What read queue length does an incoming req see
system.mem_ctrls.rdQLenPdf::20                      0                       # What read queue length does an incoming req see
system.mem_ctrls.rdQLenPdf::21                      0                       # What read queue length does an incoming req see
system.mem_ctrls.rdQLenPdf::22                      0                       # What read queue length does an incoming req see
system.mem_ctrls.rdQLenPdf::23                      0                       # What read queue length does an incoming req see
system.mem_ctrls.rdQLenPdf::24                      0                       # What read queue length does an incoming req see
system.mem_ctrls.rdQLenPdf::25                      0                       # What read queue length does an incoming req see
system.mem_ctrls.rdQLenPdf::26                      0                       # What read queue length does an incoming req see
system.mem_ctrls.rdQLenPdf::27                      0                       # What read queue length does an incoming req see
system.mem_ctrls.rdQLenPdf::28                      0                       # What read queue length does an incoming req see
system.mem_ctrls.rdQLenPdf::29                      0                       # What read queue length does an incoming req see
system.mem_ctrls.rdQLenPdf::30                      0                       # What read queue length does an incoming req see
system.mem_ctrls.rdQLenPdf::31                      0                       # What read queue length does an incoming req see
system.mem_ctrls.wrQLenPdf::0                       0                       # What write queue length does an incoming req see
system.mem_ctrls.wrQLenPdf::1                       0                       # What write queue length does an incoming req see
system.mem_ctrls.wrQLenPdf::2                       0                       # What write queue length does an incoming req see
system.mem_ctrls.wrQLenPdf::3                       0                       # What write queue length does an incoming req see
system.mem_ctrls.wrQLenPdf::4                       0                       # What write queue length does an incoming req see
system.mem_ctrls.wrQLenPdf::5                       0                       # What write queue length does an incoming req see
system.mem_ctrls.wrQLenPdf::6                       0                       # What write queue length does an incoming req see
system.mem_ctrls.wrQLenPdf::7                       0                       # What write queue length does an incoming req see
system.mem_ctrls.wrQLenPdf::8                       0                       # What write queue length does an incoming req see
system.mem_ctrls.wrQLenPdf::9                       0                       # What write queue length does an incoming req see
system.mem_ctrls.wrQLenPdf::10                      0                       # What write queue length does an incoming req see
system.mem_ctrls.wrQLenPdf::11                      0                       # What write queue length does an incoming req see
system.mem_ctrls.wrQLenPdf::12                      0                       # What write queue length does an incoming req see
system.mem_ctrls.wrQLenPdf::13                      0                       # What write queue length does an incoming req see
system.mem_ctrls.wrQLenPdf::14                      0                       # What write queue length does an incoming req see
system.mem_ctrls.wrQLenPdf::15                      0                       # What write queue length does an incoming req see
system.mem_ctrls.wrQLenPdf::16                      0                       # What write queue length does an incoming req see
system.mem_ctrls.wrQLenPdf::17                      0                       # What write queue length does an incoming req see
system.mem_ctrls.wrQLenPdf::18                      0                       # What write queue length does an incoming req see
system.mem_ctrls.wrQLenPdf::19                      0                       # What write queue length does an incoming req see
system.mem_ctrls.wrQLenPdf::20                      0                       # What write queue length does an incoming req see
system.mem_ctrls.wrQLenPdf::21                      0                       # What write queue length does an incoming req see
system.mem_ctrls.wrQLenPdf::22                      0                       # What write queue length does an incoming req see
system.mem_ctrls.wrQLenPdf::23                      0                       # What write queue length does an incoming req see
system.mem_ctrls.wrQLenPdf::24                      0                       # What write queue length does an incoming req see
system.mem_ctrls.wrQLenPdf::25                      0                       # What write queue length does an incoming req see
system.mem_ctrls.wrQLenPdf::26                      0                       # What write queue length does an incoming req see
system.mem_ctrls.wrQLenPdf::27                      0                       # What write queue length does an incoming req see
system.mem_ctrls.wrQLenPdf::28                      0                       # What write queue length does an incoming req see
system.mem_ctrls.wrQLenPdf::29                      0                       # What write queue length does an incoming req see
system.mem_ctrls.wrQLenPdf::30                      0                       # What write queue length does an incoming req see
system.mem_ctrls.wrQLenPdf::31                      0                       # What write queue length does an incoming req see
system.mem_ctrls.wrQLenPdf::32                      0                       # What write queue length does an incoming req see
system.mem_ctrls.wrQLenPdf::33                      0                       # What write queue length does an incoming req see
system.mem_ctrls.wrQLenPdf::34                      0                       # What write queue length does an incoming req see
system.mem_ctrls.wrQLenPdf::35                      0                       # What write queue length does an incoming req see
system.mem_ctrls.wrQLenPdf::36                      0                       # What write queue length does an incoming req see
system.mem_ctrls.wrQLenPdf::37                      0                       # What write queue length does an incoming req see
system.mem_ctrls.wrQLenPdf::38                      0                       # What write queue length does an incoming req see
system.mem_ctrls.wrQLenPdf::39                      0                       # What write queue length does an incoming req see
system.mem_ctrls.wrQLenPdf::40                      0                       # What write queue length does an incoming req see
system.mem_ctrls.wrQLenPdf::41                      0                       # What write queue length does an incoming req see
system.mem_ctrls.wrQLenPdf::42                      0                       # What write queue length does an incoming req see
system.mem_ctrls.wrQLenPdf::43                      0                       # What write queue length does an incoming req see
system.mem_ctrls.wrQLenPdf::44                      0                       # What write queue length does an incoming req see
system.mem_ctrls.wrQLenPdf::45                      0                       # What write queue length does an incoming req see
system.mem_ctrls.wrQLenPdf::46                      0                       # What write queue length does an incoming req see
system.mem_ctrls.wrQLenPdf::47                      0                       # What write queue length does an incoming req see
system.mem_ctrls.wrQLenPdf::48                      0                       # What write queue length does an incoming req see
system.mem_ctrls.wrQLenPdf::49                      0                       # What write queue length does an incoming req see
system.mem_ctrls.wrQLenPdf::50                      0                       # What write queue length does an incoming req see
system.mem_ctrls.wrQLenPdf::51                      0                       # What write queue length does an incoming req see
system.mem_ctrls.wrQLenPdf::52                      0                       # What write queue length does an incoming req see
system.mem_ctrls.wrQLenPdf::53                      0                       # What write queue length does an incoming req see
system.mem_ctrls.wrQLenPdf::54                      0                       # What write queue length does an incoming req see
system.mem_ctrls.wrQLenPdf::55                      0                       # What write queue length does an incoming req see
system.mem_ctrls.wrQLenPdf::56                      0                       # What write queue length does an incoming req see
system.mem_ctrls.wrQLenPdf::57                      0                       # What write queue length does an incoming req see
system.mem_ctrls.wrQLenPdf::58                      0                       # What write queue length does an incoming req see
system.mem_ctrls.wrQLenPdf::59                      0                       # What write queue length does an incoming req see
system.mem_ctrls.wrQLenPdf::60                      0                       # What write queue length does an incoming req see
system.mem_ctrls.wrQLenPdf::61                      0                       # What write queue length does an incoming req see
system.mem_ctrls.wrQLenPdf::62                      0                       # What write queue length does an incoming req see
system.mem_ctrls.wrQLenPdf::63                      0                       # What write queue length does an incoming req see
system.mem_ctrls.bytesReadDRAM                      0                       # Total number of bytes read from DRAM
system.mem_ctrls.bytesReadWrQ                       0                       # Total number of bytes read from write queue
system.mem_ctrls.bytesWritten                       0                       # Total number of bytes written to DRAM
system.mem_ctrls.bytesReadSys                       0                       # Total read bytes from the system interface side
system.mem_ctrls.bytesWrittenSys                    0                       # Total written bytes from the system interface side
system.mem_ctrls.avgRdBW                         0.00                       # Average DRAM read bandwidth in MiByte/s
system.mem_ctrls.avgWrBW                         0.00                       # Average achieved write bandwidth in MiByte/s
system.mem_ctrls.avgRdBWSys                      0.00                       # Average system read bandwidth in MiByte/s
system.mem_ctrls.avgWrBWSys                      0.00                       # Average system write bandwidth in MiByte/s
system.mem_ctrls.peakBW                      12800.00                       # Theoretical peak bandwidth in MiByte/s
system.mem_ctrls.busUtil                         0.00                       # Data bus utilization in percentage
system.mem_ctrls.busUtilRead                     0.00                       # Data bus utilization in percentage for reads
system.mem_ctrls.busUtilWrite                    0.00                       # Data bus utilization in percentage for writes
system.mem_ctrls.totGap                             0                       # Total gap between requests
system.mem_ctrls.avgGap                           nan                       # Average gap between requests
system.mem_ctrls.pageHitRate                      nan                       # Row buffer hit rate, read and write combined
system.mem_ctrls.rank1.actEnergy                    0                       # Energy for activate commands per rank (pJ)
system.mem_ctrls.rank1.preEnergy                    0                       # Energy for precharge commands per rank (pJ)
system.mem_ctrls.rank1.readEnergy                   0                       # Energy for read commands per rank (pJ)
system.mem_ctrls.rank1.writeEnergy                  0                       # Energy for write commands per rank (pJ)
system.mem_ctrls.rank1.refreshEnergy                0                       # Energy for refresh commands per rank (pJ)
system.mem_ctrls.rank1.actBackEnergy                0                       # Energy for active background per rank (pJ)
system.mem_ctrls.rank1.preBackEnergy      38353274400                       # Energy for precharge background per rank (pJ)
system.mem_ctrls.rank1.actPowerDownEnergy            0                       # Energy for active power-down per rank (pJ)
system.mem_ctrls.rank1.prePowerDownEnergy            0                       # Energy for precharge power-down per rank (pJ)
system.mem_ctrls.rank1.selfRefreshEnergy            0                       # Energy for self refresh per rank (pJ)
system.mem_ctrls.rank1.totalEnergy        38353274400                       # Total energy per rank (pJ)
system.mem_ctrls.rank1.averagePower        383.999999                       # Core power per rank (mW)
system.mem_ctrls.rank1.totalIdleTime                0                       # Total Idle time Per DRAM Rank
system.mem_ctrls.rank1.memoryStateTime::IDLE 7530410693000                       # Time in different power states
system.mem_ctrls.rank1.memoryStateTime::REF            0                       # Time in different power states
system.mem_ctrls.rank1.memoryStateTime::SREF            0                       # Time in different power states
system.mem_ctrls.rank1.memoryStateTime::PRE_PDN            0                       # Time in different power states
system.mem_ctrls.rank1.memoryStateTime::ACT            0                       # Time in different power states
system.mem_ctrls.rank1.memoryStateTime::ACT_PDN            0                       # Time in different power states
system.mem_ctrls.rank0.actEnergy                    0                       # Energy for activate commands per rank (pJ)
system.mem_ctrls.rank0.preEnergy                    0                       # Energy for precharge commands per rank (pJ)
system.mem_ctrls.rank0.readEnergy                   0                       # Energy for read commands per rank (pJ)
system.mem_ctrls.rank0.writeEnergy                  0                       # Energy for write commands per rank (pJ)
system.mem_ctrls.rank0.refreshEnergy                0                       # Energy for refresh commands per rank (pJ)
system.mem_ctrls.rank0.actBackEnergy                0                       # Energy for active background per rank (pJ)
system.mem_ctrls.rank0.preBackEnergy      38353274400                       # Energy for precharge background per rank (pJ)
system.mem_ctrls.rank0.actPowerDownEnergy            0                       # Energy for active power-down per rank (pJ)
system.mem_ctrls.rank0.prePowerDownEnergy            0                       # Energy for precharge power-down per rank (pJ)
system.mem_ctrls.rank0.selfRefreshEnergy            0                       # Energy for self refresh per rank (pJ)
system.mem_ctrls.rank0.totalEnergy        38353274400                       # Total energy per rank (pJ)
system.mem_ctrls.rank0.averagePower        383.999999                       # Core power per rank (mW)
system.mem_ctrls.rank0.totalIdleTime                0                       # Total Idle time Per DRAM Rank
system.mem_ctrls.rank0.memoryStateTime::IDLE 7530410693000                       # Time in different power states
system.mem_ctrls.rank0.memoryStateTime::REF            0                       # Time in different power states
system.mem_ctrls.rank0.memoryStateTime::SREF            0                       # Time in different power states
system.mem_ctrls.rank0.memoryStateTime::PRE_PDN            0                       # Time in different power states
system.mem_ctrls.rank0.memoryStateTime::ACT            0                       # Time in different power states
system.mem_ctrls.rank0.memoryStateTime::ACT_PDN            0                       # Time in different power states
system.mem_ctrls.power_state.pwrStateResidencyTicks::UNDEFINED 7530410693000                       # Cumulative time (in ticks) in various power states
system.iobus.trans_dist::ReadReq                  142                       # Transaction distribution
system.iobus.trans_dist::ReadResp                 142                       # Transaction distribution
system.iobus.trans_dist::WriteReq               14640                       # Transaction distribution
system.iobus.trans_dist::WriteResp              14640                       # Transaction distribution
system.iobus.pkt_count_system.bridge.master::system.pc.south_bridge.ide.pio          506                       # Packet count per connected master and slave (bytes)
system.iobus.pkt_count_system.bridge.master::total          506                       # Packet count per connected master and slave (bytes)
system.iobus.pkt_count_system.pc.south_bridge.ide.dma::system.iobridge.slave        29036                       # Packet count per connected master and slave (bytes)
system.iobus.pkt_count_system.pc.south_bridge.ide.dma::total        29036                       # Packet count per connected master and slave (bytes)
system.iobus.pkt_count_system.pc.south_bridge.io_apic.int_master::system.apicbridge.slave           22                       # Packet count per connected master and slave (bytes)
system.iobus.pkt_count_system.pc.south_bridge.io_apic.int_master::total           22                       # Packet count per connected master and slave (bytes)
system.iobus.pkt_count::total                   29564                       # Packet count per connected master and slave (bytes)
system.iobus.pkt_size_system.bridge.master::system.pc.south_bridge.ide.pio          286                       # Cumulative packet size per connected master and slave (bytes)
system.iobus.pkt_size_system.bridge.master::total          286                       # Cumulative packet size per connected master and slave (bytes)
system.iobus.pkt_size_system.pc.south_bridge.ide.dma::system.iobridge.slave       926128                       # Cumulative packet size per connected master and slave (bytes)
system.iobus.pkt_size_system.pc.south_bridge.ide.dma::total       926128                       # Cumulative packet size per connected master and slave (bytes)
system.iobus.pkt_size_system.pc.south_bridge.io_apic.int_master::system.apicbridge.slave           44                       # Cumulative packet size per connected master and slave (bytes)
system.iobus.pkt_size_system.pc.south_bridge.io_apic.int_master::total           44                       # Cumulative packet size per connected master and slave (bytes)
system.iobus.pkt_size::total                   926458                       # Cumulative packet size per connected master and slave (bytes)
system.iobus.power_state.pwrStateResidencyTicks::UNDEFINED 7530410693000                       # Cumulative time (in ticks) in various power states
system.cpu_clk_domain.clock                       500                       # Clock period in ticks
system.cpu.dtb.walker.power_state.pwrStateResidencyTicks::UNDEFINED 7530410693000                       # Cumulative time (in ticks) in various power states
system.cpu.interrupts.clk_domain.clock           8000                       # Clock period in ticks
system.cpu.itb.walker.power_state.pwrStateResidencyTicks::UNDEFINED 7530410693000                       # Cumulative time (in ticks) in various power states
system.cpu.power_state.numTransitions            6602                       # Number of power state transitions
system.cpu.power_state.ticksClkGated::samples         3301                       # Distribution of time spent in the clock gated state
system.cpu.power_state.ticksClkGated::mean 993011555.395032                       # Distribution of time spent in the clock gated state
system.cpu.power_state.ticksClkGated::stdev 62329127.207989                       # Distribution of time spent in the clock gated state
system.cpu.power_state.ticksClkGated::1000-5e+10         3301    100.00%    100.00% # Distribution of time spent in the clock gated state
system.cpu.power_state.ticksClkGated::min_value       167661                       # Distribution of time spent in the clock gated state
system.cpu.power_state.ticksClkGated::max_value    998026500                       # Distribution of time spent in the clock gated state
system.cpu.power_state.ticksClkGated::total         3301                       # Distribution of time spent in the clock gated state
system.cpu.power_state.pwrStateResidencyTicks::ON 109128826608                       # Cumulative time (in ticks) in various power states
system.cpu.power_state.pwrStateResidencyTicks::CLK_GATED 3277931144359                       # Cumulative time (in ticks) in various power states

---------- End Simulation Statistics   ----------
