
---------- Begin Simulation Statistics ----------
final_tick                                 3665163000                       # Number of ticks from beginning of simulation (restored from checkpoints and never reset)
host_inst_rate                                 275265                       # Simulator instruction rate (inst/s)
host_mem_usage                                1294612                       # Number of bytes of host memory used
host_op_rate                                   573945                       # Simulator op (including micro ops) rate (op/s)
host_seconds                                     3.64                       # Real time elapsed on the host
host_tick_rate                             1007482913                       # Simulator tick rate (ticks/s)
sim_freq                                 1000000000000                       # Frequency of simulated ticks
sim_insts                                     1001316                       # Number of instructions simulated
sim_ops                                       2087946                       # Number of ops (including micro ops) simulated
sim_seconds                                  0.003665                       # Number of seconds simulated
sim_ticks                                  3665163000                       # Number of ticks simulated
system.cpu.Branches                            130178                       # Number of branches fetched
system.cpu.committedInsts                     1001316                       # Number of instructions committed
system.cpu.committedOps                       2087946                       # Number of ops (including micro ops) committed
system.cpu.dtb.rdAccesses                      191787                       # TLB accesses on read requests
system.cpu.dtb.rdMisses                            33                       # TLB misses on read requests
system.cpu.dtb.wrAccesses                       52579                       # TLB accesses on write requests
system.cpu.dtb.wrMisses                            66                       # TLB misses on write requests
system.cpu.idle_fraction                            0                       # Percentage of idle cycles
system.cpu.itb.rdAccesses                           0                       # TLB accesses on read requests
system.cpu.itb.rdMisses                             0                       # TLB misses on read requests
system.cpu.itb.wrAccesses                     1432427                       # TLB accesses on write requests
system.cpu.itb.wrMisses                            95                       # TLB misses on write requests
system.cpu.not_idle_fraction                        1                       # Percentage of non-idle cycles
system.cpu.numCycles                          3665152                       # number of cpu cycles simulated
system.cpu.numWorkItemsCompleted                    0                       # number of work items this cpu completed
system.cpu.numWorkItemsStarted                      0                       # number of work items this cpu started
system.cpu.num_busy_cycles                    3665152                       # Number of busy cycles
system.cpu.num_cc_register_reads              1162574                       # number of times the CC registers were read
system.cpu.num_cc_register_writes              616459                       # number of times the CC registers were written
system.cpu.num_conditional_control_insts       103970                       # number of instructions that are conditional controls
system.cpu.num_fp_alu_accesses                 567534                       # Number of float alu accesses
system.cpu.num_fp_insts                        567534                       # number of float instructions
system.cpu.num_fp_register_reads               988378                       # number of times the floating registers were read
system.cpu.num_fp_register_writes              539971                       # number of times the floating registers were written
system.cpu.num_func_calls                       16395                       # number of times a function call or return occured
system.cpu.num_idle_cycles                          0                       # Number of idle cycles
system.cpu.num_int_alu_accesses               1647873                       # Number of integer alu accesses
system.cpu.num_int_insts                      1647873                       # number of integer instructions
system.cpu.num_int_register_reads             3323952                       # number of times the integer registers were read
system.cpu.num_int_register_writes            1547830                       # number of times the integer registers were written
system.cpu.num_load_insts                      191781                       # Number of load instructions
system.cpu.num_mem_refs                        244357                       # number of memory refs
system.cpu.num_store_insts                      52576                       # Number of store instructions
system.cpu.num_vec_alu_accesses                     0                       # Number of vector alu accesses
system.cpu.num_vec_insts                            0                       # number of vector instructions
system.cpu.num_vec_register_reads                   0                       # number of times the vector registers were read
system.cpu.num_vec_register_writes                  0                       # number of times the vector registers were written
system.cpu.op_class::No_OpClass                 18760      0.90%      0.90% # Class of executed instruction
system.cpu.op_class::IntAlu                   1370578     65.64%     66.54% # Class of executed instruction
system.cpu.op_class::IntMult                     1361      0.07%     66.61% # Class of executed instruction
system.cpu.op_class::IntDiv                     95123      4.56%     71.16% # Class of executed instruction
system.cpu.op_class::FloatAdd                   51745      2.48%     73.64% # Class of executed instruction
system.cpu.op_class::FloatCmp                       0      0.00%     73.64% # Class of executed instruction
system.cpu.op_class::FloatCvt                       0      0.00%     73.64% # Class of executed instruction
system.cpu.op_class::FloatMult                      0      0.00%     73.64% # Class of executed instruction
system.cpu.op_class::FloatMultAcc                   0      0.00%     73.64% # Class of executed instruction
system.cpu.op_class::FloatDiv                       0      0.00%     73.64% # Class of executed instruction
system.cpu.op_class::FloatMisc                      0      0.00%     73.64% # Class of executed instruction
system.cpu.op_class::FloatSqrt                      0      0.00%     73.64% # Class of executed instruction
system.cpu.op_class::SimdAdd                      916      0.04%     73.68% # Class of executed instruction
system.cpu.op_class::SimdAddAcc                     0      0.00%     73.68% # Class of executed instruction
system.cpu.op_class::SimdAlu                    30648      1.47%     75.15% # Class of executed instruction
system.cpu.op_class::SimdCmp                        0      0.00%     75.15% # Class of executed instruction
system.cpu.op_class::SimdCvt                     2058      0.10%     75.25% # Class of executed instruction
system.cpu.op_class::SimdMisc                   37779      1.81%     77.06% # Class of executed instruction
system.cpu.op_class::SimdMult                       0      0.00%     77.06% # Class of executed instruction
system.cpu.op_class::SimdMultAcc                    0      0.00%     77.06% # Class of executed instruction
system.cpu.op_class::SimdShift                    592      0.03%     77.09% # Class of executed instruction
system.cpu.op_class::SimdShiftAcc                   0      0.00%     77.09% # Class of executed instruction
system.cpu.op_class::SimdDiv                        0      0.00%     77.09% # Class of executed instruction
system.cpu.op_class::SimdSqrt                       0      0.00%     77.09% # Class of executed instruction
system.cpu.op_class::SimdFloatAdd              109561      5.25%     82.33% # Class of executed instruction
system.cpu.op_class::SimdFloatAlu                   0      0.00%     82.33% # Class of executed instruction
system.cpu.op_class::SimdFloatCmp                   0      0.00%     82.33% # Class of executed instruction
system.cpu.op_class::SimdFloatCvt               29214      1.40%     83.73% # Class of executed instruction
system.cpu.op_class::SimdFloatDiv               14558      0.70%     84.43% # Class of executed instruction
system.cpu.op_class::SimdFloatMisc                  0      0.00%     84.43% # Class of executed instruction
system.cpu.op_class::SimdFloatMult              80725      3.87%     88.30% # Class of executed instruction
system.cpu.op_class::SimdFloatMultAcc               0      0.00%     88.30% # Class of executed instruction
system.cpu.op_class::SimdFloatSqrt                  0      0.00%     88.30% # Class of executed instruction
system.cpu.op_class::SimdReduceAdd                  0      0.00%     88.30% # Class of executed instruction
system.cpu.op_class::SimdReduceAlu                  0      0.00%     88.30% # Class of executed instruction
system.cpu.op_class::SimdReduceCmp                  0      0.00%     88.30% # Class of executed instruction
system.cpu.op_class::SimdFloatReduceAdd             0      0.00%     88.30% # Class of executed instruction
system.cpu.op_class::SimdFloatReduceCmp             0      0.00%     88.30% # Class of executed instruction
system.cpu.op_class::SimdAes                        0      0.00%     88.30% # Class of executed instruction
system.cpu.op_class::SimdAesMix                     0      0.00%     88.30% # Class of executed instruction
system.cpu.op_class::SimdSha1Hash                   0      0.00%     88.30% # Class of executed instruction
system.cpu.op_class::SimdSha1Hash2                  0      0.00%     88.30% # Class of executed instruction
system.cpu.op_class::SimdSha256Hash                 0      0.00%     88.30% # Class of executed instruction
system.cpu.op_class::SimdSha256Hash2                0      0.00%     88.30% # Class of executed instruction
system.cpu.op_class::SimdShaSigma2                  0      0.00%     88.30% # Class of executed instruction
system.cpu.op_class::SimdShaSigma3                  0      0.00%     88.30% # Class of executed instruction
system.cpu.op_class::SimdPredAlu                    0      0.00%     88.30% # Class of executed instruction
system.cpu.op_class::MemRead                    87347      4.18%     92.48% # Class of executed instruction
system.cpu.op_class::MemWrite                   48018      2.30%     94.78% # Class of executed instruction
system.cpu.op_class::FloatMemRead              104434      5.00%     99.78% # Class of executed instruction
system.cpu.op_class::FloatMemWrite               4558      0.22%    100.00% # Class of executed instruction
system.cpu.op_class::IprAccess                      0      0.00%    100.00% # Class of executed instruction
system.cpu.op_class::InstPrefetch                   0      0.00%    100.00% # Class of executed instruction
system.cpu.op_class::total                    2087975                       # Class of executed instruction
system.cpu.workload.numSyscalls                    23                       # Number of system calls
system.dynamic_cache.flushTicks                     0                       # Ticks taken to flush
system.dynamic_cache.numFlushes                     0                       # Number of Flushes Taken
system.cache_small.blocked_cycles::no_mshrs            0                       # number of cycles access was blocked
system.cache_small.blocked_cycles::no_targets            0                       # number of cycles access was blocked
system.cache_small.blocked::no_mshrs                0                       # number of cycles access was blocked
system.cache_small.blocked::no_targets              0                       # number of cycles access was blocked
system.cache_small.avg_blocked_cycles::no_mshrs          nan                       # average number of cycles each access was blocked
system.cache_small.avg_blocked_cycles::no_targets          nan                       # average number of cycles each access was blocked
system.cache_small.replacements                     0                       # number of replacements
system.cache_small.power_state.pwrStateResidencyTicks::UNDEFINED   3665163000                       # Cumulative time (in ticks) in various power states
system.cache_small.tags.tagsinuse                   0                       # Cycle average of tags in use
system.cache_small.tags.total_refs                  0                       # Total number of references to valid blocks.
system.cache_small.tags.sampled_refs                0                       # Sample count of references to valid blocks.
system.cache_small.tags.avg_refs                  nan                       # Average number of references to valid blocks.
system.cache_small.tags.warmup_cycle                0                       # Cycle when the warmup percentage was hit.
system.cache_small.tags.tag_accesses                0                       # Number of tag accesses
system.cache_small.tags.data_accesses               0                       # Number of data accesses
system.cache_small.tags.power_state.pwrStateResidencyTicks::UNDEFINED   3665163000                       # Cumulative time (in ticks) in various power states
system.icache.demand_hits::.cpu.inst          1430823                       # number of demand (read+write) hits
system.icache.demand_hits::total              1430823                       # number of demand (read+write) hits
system.icache.overall_hits::.cpu.inst         1430823                       # number of overall hits
system.icache.overall_hits::total             1430823                       # number of overall hits
system.icache.demand_misses::.cpu.inst           1604                       # number of demand (read+write) misses
system.icache.demand_misses::total               1604                       # number of demand (read+write) misses
system.icache.overall_misses::.cpu.inst          1604                       # number of overall misses
system.icache.overall_misses::total              1604                       # number of overall misses
system.icache.demand_miss_latency::.cpu.inst    107241000                       # number of demand (read+write) miss cycles
system.icache.demand_miss_latency::total    107241000                       # number of demand (read+write) miss cycles
system.icache.overall_miss_latency::.cpu.inst    107241000                       # number of overall miss cycles
system.icache.overall_miss_latency::total    107241000                       # number of overall miss cycles
system.icache.demand_accesses::.cpu.inst      1432427                       # number of demand (read+write) accesses
system.icache.demand_accesses::total          1432427                       # number of demand (read+write) accesses
system.icache.overall_accesses::.cpu.inst      1432427                       # number of overall (read+write) accesses
system.icache.overall_accesses::total         1432427                       # number of overall (read+write) accesses
system.icache.demand_miss_rate::.cpu.inst     0.001120                       # miss rate for demand accesses
system.icache.demand_miss_rate::total        0.001120                       # miss rate for demand accesses
system.icache.overall_miss_rate::.cpu.inst     0.001120                       # miss rate for overall accesses
system.icache.overall_miss_rate::total       0.001120                       # miss rate for overall accesses
system.icache.demand_avg_miss_latency::.cpu.inst 66858.478803                       # average overall miss latency
system.icache.demand_avg_miss_latency::total 66858.478803                       # average overall miss latency
system.icache.overall_avg_miss_latency::.cpu.inst 66858.478803                       # average overall miss latency
system.icache.overall_avg_miss_latency::total 66858.478803                       # average overall miss latency
system.icache.blocked_cycles::no_mshrs              0                       # number of cycles access was blocked
system.icache.blocked_cycles::no_targets            0                       # number of cycles access was blocked
system.icache.blocked::no_mshrs                     0                       # number of cycles access was blocked
system.icache.blocked::no_targets                   0                       # number of cycles access was blocked
system.icache.avg_blocked_cycles::no_mshrs          nan                       # average number of cycles each access was blocked
system.icache.avg_blocked_cycles::no_targets          nan                       # average number of cycles each access was blocked
system.icache.demand_mshr_misses::.cpu.inst         1604                       # number of demand (read+write) MSHR misses
system.icache.demand_mshr_misses::total          1604                       # number of demand (read+write) MSHR misses
system.icache.overall_mshr_misses::.cpu.inst         1604                       # number of overall MSHR misses
system.icache.overall_mshr_misses::total         1604                       # number of overall MSHR misses
system.icache.demand_mshr_miss_latency::.cpu.inst    104033000                       # number of demand (read+write) MSHR miss cycles
system.icache.demand_mshr_miss_latency::total    104033000                       # number of demand (read+write) MSHR miss cycles
system.icache.overall_mshr_miss_latency::.cpu.inst    104033000                       # number of overall MSHR miss cycles
system.icache.overall_mshr_miss_latency::total    104033000                       # number of overall MSHR miss cycles
system.icache.demand_mshr_miss_rate::.cpu.inst     0.001120                       # mshr miss rate for demand accesses
system.icache.demand_mshr_miss_rate::total     0.001120                       # mshr miss rate for demand accesses
system.icache.overall_mshr_miss_rate::.cpu.inst     0.001120                       # mshr miss rate for overall accesses
system.icache.overall_mshr_miss_rate::total     0.001120                       # mshr miss rate for overall accesses
system.icache.demand_avg_mshr_miss_latency::.cpu.inst 64858.478803                       # average overall mshr miss latency
system.icache.demand_avg_mshr_miss_latency::total 64858.478803                       # average overall mshr miss latency
system.icache.overall_avg_mshr_miss_latency::.cpu.inst 64858.478803                       # average overall mshr miss latency
system.icache.overall_avg_mshr_miss_latency::total 64858.478803                       # average overall mshr miss latency
system.icache.replacements                       1349                       # number of replacements
system.icache.ReadReq_hits::.cpu.inst         1430823                       # number of ReadReq hits
system.icache.ReadReq_hits::total             1430823                       # number of ReadReq hits
system.icache.ReadReq_misses::.cpu.inst          1604                       # number of ReadReq misses
system.icache.ReadReq_misses::total              1604                       # number of ReadReq misses
system.icache.ReadReq_miss_latency::.cpu.inst    107241000                       # number of ReadReq miss cycles
system.icache.ReadReq_miss_latency::total    107241000                       # number of ReadReq miss cycles
system.icache.ReadReq_accesses::.cpu.inst      1432427                       # number of ReadReq accesses(hits+misses)
system.icache.ReadReq_accesses::total         1432427                       # number of ReadReq accesses(hits+misses)
system.icache.ReadReq_miss_rate::.cpu.inst     0.001120                       # miss rate for ReadReq accesses
system.icache.ReadReq_miss_rate::total       0.001120                       # miss rate for ReadReq accesses
system.icache.ReadReq_avg_miss_latency::.cpu.inst 66858.478803                       # average ReadReq miss latency
system.icache.ReadReq_avg_miss_latency::total 66858.478803                       # average ReadReq miss latency
system.icache.ReadReq_mshr_misses::.cpu.inst         1604                       # number of ReadReq MSHR misses
system.icache.ReadReq_mshr_misses::total         1604                       # number of ReadReq MSHR misses
system.icache.ReadReq_mshr_miss_latency::.cpu.inst    104033000                       # number of ReadReq MSHR miss cycles
system.icache.ReadReq_mshr_miss_latency::total    104033000                       # number of ReadReq MSHR miss cycles
system.icache.ReadReq_mshr_miss_rate::.cpu.inst     0.001120                       # mshr miss rate for ReadReq accesses
system.icache.ReadReq_mshr_miss_rate::total     0.001120                       # mshr miss rate for ReadReq accesses
system.icache.ReadReq_avg_mshr_miss_latency::.cpu.inst 64858.478803                       # average ReadReq mshr miss latency
system.icache.ReadReq_avg_mshr_miss_latency::total 64858.478803                       # average ReadReq mshr miss latency
system.icache.power_state.pwrStateResidencyTicks::UNDEFINED   3665163000                       # Cumulative time (in ticks) in various power states
system.icache.tags.tagsinuse               250.675883                       # Cycle average of tags in use
system.icache.tags.total_refs                  203318                       # Total number of references to valid blocks.
system.icache.tags.sampled_refs                  1349                       # Sample count of references to valid blocks.
system.icache.tags.avg_refs                150.717569                       # Average number of references to valid blocks.
system.icache.tags.warmup_cycle                 80000                       # Cycle when the warmup percentage was hit.
system.icache.tags.occ_blocks::.cpu.inst   250.675883                       # Average occupied blocks per requestor
system.icache.tags.occ_percent::.cpu.inst     0.979203                       # Average percentage of cache occupancy
system.icache.tags.occ_percent::total        0.979203                       # Average percentage of cache occupancy
system.icache.tags.occ_task_id_blocks::1024          255                       # Occupied blocks per task id
system.icache.tags.age_task_id_blocks_1024::3          255                       # Occupied blocks per task id
system.icache.tags.occ_task_id_percent::1024     0.996094                       # Percentage of cache occupancy per task id
system.icache.tags.tag_accesses               1434031                       # Number of tag accesses
system.icache.tags.data_accesses              1434031                       # Number of data accesses
system.icache.tags.power_state.pwrStateResidencyTicks::UNDEFINED   3665163000                       # Cumulative time (in ticks) in various power states
system.membus.trans_dist::ReadReq                4200                       # Transaction distribution
system.membus.trans_dist::ReadResp               4200                       # Transaction distribution
system.membus.trans_dist::WritebackDirty         1681                       # Transaction distribution
system.membus.pkt_count_system.dynamic_cache.mem_side::system.mem_ctrl.port        10081                       # Packet count per connected master and slave (bytes)
system.membus.pkt_count_system.dynamic_cache.mem_side::total        10081                       # Packet count per connected master and slave (bytes)
system.membus.pkt_count::total                  10081                       # Packet count per connected master and slave (bytes)
system.membus.pkt_size_system.dynamic_cache.mem_side::system.mem_ctrl.port       376384                       # Cumulative packet size per connected master and slave (bytes)
system.membus.pkt_size_system.dynamic_cache.mem_side::total       376384                       # Cumulative packet size per connected master and slave (bytes)
system.membus.pkt_size::total                  376384                       # Cumulative packet size per connected master and slave (bytes)
system.membus.reqLayer2.occupancy            12605000                       # Layer occupancy (ticks)
system.membus.reqLayer2.utilization               0.3                       # Layer utilization (%)
system.membus.respLayer0.occupancy           22301500                       # Layer occupancy (ticks)
system.membus.respLayer0.utilization              0.6                       # Layer utilization (%)
system.membus.power_state.pwrStateResidencyTicks::UNDEFINED   3665163000                       # Cumulative time (in ticks) in various power states
system.mem_ctrl.bytes_read::.cpu.inst           91392                       # Number of bytes read from this memory
system.mem_ctrl.bytes_read::.cpu.data          177408                       # Number of bytes read from this memory
system.mem_ctrl.bytes_read::total              268800                       # Number of bytes read from this memory
system.mem_ctrl.bytes_inst_read::.cpu.inst        91392                       # Number of instructions bytes read from this memory
system.mem_ctrl.bytes_inst_read::total          91392                       # Number of instructions bytes read from this memory
system.mem_ctrl.bytes_written::.writebacks       107584                       # Number of bytes written to this memory
system.mem_ctrl.bytes_written::total           107584                       # Number of bytes written to this memory
system.mem_ctrl.num_reads::.cpu.inst             1428                       # Number of read requests responded to by this memory
system.mem_ctrl.num_reads::.cpu.data             2772                       # Number of read requests responded to by this memory
system.mem_ctrl.num_reads::total                 4200                       # Number of read requests responded to by this memory
system.mem_ctrl.num_writes::.writebacks          1681                       # Number of write requests responded to by this memory
system.mem_ctrl.num_writes::total                1681                       # Number of write requests responded to by this memory
system.mem_ctrl.bw_read::.cpu.inst           24935317                       # Total read bandwidth from this memory (bytes/s)
system.mem_ctrl.bw_read::.cpu.data           48403850                       # Total read bandwidth from this memory (bytes/s)
system.mem_ctrl.bw_read::total               73339167                       # Total read bandwidth from this memory (bytes/s)
system.mem_ctrl.bw_inst_read::.cpu.inst      24935317                       # Instruction read bandwidth from this memory (bytes/s)
system.mem_ctrl.bw_inst_read::total          24935317                       # Instruction read bandwidth from this memory (bytes/s)
system.mem_ctrl.bw_write::.writebacks        29353128                       # Write bandwidth from this memory (bytes/s)
system.mem_ctrl.bw_write::total              29353128                       # Write bandwidth from this memory (bytes/s)
system.mem_ctrl.bw_total::.writebacks        29353128                       # Total bandwidth to/from this memory (bytes/s)
system.mem_ctrl.bw_total::.cpu.inst          24935317                       # Total bandwidth to/from this memory (bytes/s)
system.mem_ctrl.bw_total::.cpu.data          48403850                       # Total bandwidth to/from this memory (bytes/s)
system.mem_ctrl.bw_total::total             102692295                       # Total bandwidth to/from this memory (bytes/s)
system.mem_ctrl.avgPriority_.writebacks::samples      1287.00                       # Average QoS priority value for accepted requests
system.mem_ctrl.avgPriority_.cpu.inst::samples      1428.00                       # Average QoS priority value for accepted requests
system.mem_ctrl.avgPriority_.cpu.data::samples      2422.00                       # Average QoS priority value for accepted requests
system.mem_ctrl.priorityMinLatency       0.000000018750                       # per QoS priority minimum request to response latency (s)
system.mem_ctrl.priorityMaxLatency       0.001195880500                       # per QoS priority maximum request to response latency (s)
system.mem_ctrl.numReadWriteTurnArounds            73                       # Number of turnarounds from READ to WRITE
system.mem_ctrl.numWriteReadTurnArounds            73                       # Number of turnarounds from WRITE to READ
system.mem_ctrl.numStayReadState                10278                       # Number of times bus staying in READ state
system.mem_ctrl.numStayWriteState                1184                       # Number of times bus staying in WRITE state
system.mem_ctrl.readReqs                         4200                       # Number of read requests accepted
system.mem_ctrl.writeReqs                        1681                       # Number of write requests accepted
system.mem_ctrl.readBursts                       4200                       # Number of DRAM read bursts, including those serviced by the write queue
system.mem_ctrl.writeBursts                      1681                       # Number of DRAM write bursts, including those merged in the write queue
system.mem_ctrl.servicedByWrQ                     350                       # Number of DRAM read bursts serviced by the write queue
system.mem_ctrl.mergedWrBursts                    394                       # Number of DRAM write bursts merged with an existing one
system.mem_ctrl.neitherReadNorWriteReqs             0                       # Number of requests that are neither read nor write
system.mem_ctrl.perBankRdBursts::0                358                       # Per bank write bursts
system.mem_ctrl.perBankRdBursts::1                386                       # Per bank write bursts
system.mem_ctrl.perBankRdBursts::2                432                       # Per bank write bursts
system.mem_ctrl.perBankRdBursts::3                344                       # Per bank write bursts
system.mem_ctrl.perBankRdBursts::4                204                       # Per bank write bursts
system.mem_ctrl.perBankRdBursts::5                166                       # Per bank write bursts
system.mem_ctrl.perBankRdBursts::6                300                       # Per bank write bursts
system.mem_ctrl.perBankRdBursts::7                 99                       # Per bank write bursts
system.mem_ctrl.perBankRdBursts::8                 42                       # Per bank write bursts
system.mem_ctrl.perBankRdBursts::9                276                       # Per bank write bursts
system.mem_ctrl.perBankRdBursts::10               334                       # Per bank write bursts
system.mem_ctrl.perBankRdBursts::11               178                       # Per bank write bursts
system.mem_ctrl.perBankRdBursts::12               224                       # Per bank write bursts
system.mem_ctrl.perBankRdBursts::13               210                       # Per bank write bursts
system.mem_ctrl.perBankRdBursts::14               192                       # Per bank write bursts
system.mem_ctrl.perBankRdBursts::15               105                       # Per bank write bursts
system.mem_ctrl.perBankWrBursts::0                 71                       # Per bank write bursts
system.mem_ctrl.perBankWrBursts::1                143                       # Per bank write bursts
system.mem_ctrl.perBankWrBursts::2                132                       # Per bank write bursts
system.mem_ctrl.perBankWrBursts::3                128                       # Per bank write bursts
system.mem_ctrl.perBankWrBursts::4                104                       # Per bank write bursts
system.mem_ctrl.perBankWrBursts::5                 96                       # Per bank write bursts
system.mem_ctrl.perBankWrBursts::6                 62                       # Per bank write bursts
system.mem_ctrl.perBankWrBursts::7                 34                       # Per bank write bursts
system.mem_ctrl.perBankWrBursts::8                 14                       # Per bank write bursts
system.mem_ctrl.perBankWrBursts::9                 32                       # Per bank write bursts
system.mem_ctrl.perBankWrBursts::10                62                       # Per bank write bursts
system.mem_ctrl.perBankWrBursts::11                25                       # Per bank write bursts
system.mem_ctrl.perBankWrBursts::12                66                       # Per bank write bursts
system.mem_ctrl.perBankWrBursts::13               102                       # Per bank write bursts
system.mem_ctrl.perBankWrBursts::14               112                       # Per bank write bursts
system.mem_ctrl.perBankWrBursts::15                73                       # Per bank write bursts
system.mem_ctrl.avgRdQLen                        1.00                       # Average read queue length when enqueuing
system.mem_ctrl.avgWrQLen                       24.05                       # Average write queue length when enqueuing
system.mem_ctrl.totQLat                      33066000                       # Total ticks spent queuing
system.mem_ctrl.totBusLat                    19250000                       # Total ticks spent in databus transfers
system.mem_ctrl.totMemAccLat                105253500                       # Total ticks spent from burst creation until serviced by the DRAM
system.mem_ctrl.avgQLat                       8588.57                       # Average queueing delay per DRAM burst
system.mem_ctrl.avgBusLat                     5000.00                       # Average bus latency per DRAM burst
system.mem_ctrl.avgMemAccLat                 27338.57                       # Average memory access latency per DRAM burst
system.mem_ctrl.numRdRetry                          0                       # Number of times read queue was full causing retry
system.mem_ctrl.numWrRetry                          0                       # Number of times write queue was full causing retry
system.mem_ctrl.readRowHits                      2678                       # Number of row buffer hits during reads
system.mem_ctrl.writeRowHits                     1064                       # Number of row buffer hits during writes
system.mem_ctrl.readRowHitRate                  69.56                       # Row buffer hit rate for reads
system.mem_ctrl.writeRowHitRate                 82.67                       # Row buffer hit rate for writes
system.mem_ctrl.readPktSize::0                      0                       # Read request sizes (log2)
system.mem_ctrl.readPktSize::1                      0                       # Read request sizes (log2)
system.mem_ctrl.readPktSize::2                      0                       # Read request sizes (log2)
system.mem_ctrl.readPktSize::3                      0                       # Read request sizes (log2)
system.mem_ctrl.readPktSize::4                      0                       # Read request sizes (log2)
system.mem_ctrl.readPktSize::5                      0                       # Read request sizes (log2)
system.mem_ctrl.readPktSize::6                   4200                       # Read request sizes (log2)
system.mem_ctrl.writePktSize::0                     0                       # Write request sizes (log2)
system.mem_ctrl.writePktSize::1                     0                       # Write request sizes (log2)
system.mem_ctrl.writePktSize::2                     0                       # Write request sizes (log2)
system.mem_ctrl.writePktSize::3                     0                       # Write request sizes (log2)
system.mem_ctrl.writePktSize::4                     0                       # Write request sizes (log2)
system.mem_ctrl.writePktSize::5                     0                       # Write request sizes (log2)
system.mem_ctrl.writePktSize::6                  1681                       # Write request sizes (log2)
system.mem_ctrl.rdQLenPdf::0                     3850                       # What read queue length does an incoming req see
system.mem_ctrl.rdQLenPdf::1                        0                       # What read queue length does an incoming req see
system.mem_ctrl.rdQLenPdf::2                        0                       # What read queue length does an incoming req see
system.mem_ctrl.rdQLenPdf::3                        0                       # What read queue length does an incoming req see
system.mem_ctrl.rdQLenPdf::4                        0                       # What read queue length does an incoming req see
system.mem_ctrl.rdQLenPdf::5                        0                       # What read queue length does an incoming req see
system.mem_ctrl.rdQLenPdf::6                        0                       # What read queue length does an incoming req see
system.mem_ctrl.rdQLenPdf::7                        0                       # What read queue length does an incoming req see
system.mem_ctrl.rdQLenPdf::8                        0                       # What read queue length does an incoming req see
system.mem_ctrl.rdQLenPdf::9                        0                       # What read queue length does an incoming req see
system.mem_ctrl.rdQLenPdf::10                       0                       # What read queue length does an incoming req see
system.mem_ctrl.rdQLenPdf::11                       0                       # What read queue length does an incoming req see
system.mem_ctrl.rdQLenPdf::12                       0                       # What read queue length does an incoming req see
system.mem_ctrl.rdQLenPdf::13                       0                       # What read queue length does an incoming req see
system.mem_ctrl.rdQLenPdf::14                       0                       # What read queue length does an incoming req see
system.mem_ctrl.rdQLenPdf::15                       0                       # What read queue length does an incoming req see
system.mem_ctrl.rdQLenPdf::16                       0                       # What read queue length does an incoming req see
system.mem_ctrl.rdQLenPdf::17                       0                       # What read queue length does an incoming req see
system.mem_ctrl.rdQLenPdf::18                       0                       # What read queue length does an incoming req see
system.mem_ctrl.rdQLenPdf::19                       0                       # What read queue length does an incoming req see
system.mem_ctrl.rdQLenPdf::20                       0                       # What read queue length does an incoming req see
system.mem_ctrl.rdQLenPdf::21                       0                       # What read queue length does an incoming req see
system.mem_ctrl.rdQLenPdf::22                       0                       # What read queue length does an incoming req see
system.mem_ctrl.rdQLenPdf::23                       0                       # What read queue length does an incoming req see
system.mem_ctrl.rdQLenPdf::24                       0                       # What read queue length does an incoming req see
system.mem_ctrl.rdQLenPdf::25                       0                       # What read queue length does an incoming req see
system.mem_ctrl.rdQLenPdf::26                       0                       # What read queue length does an incoming req see
system.mem_ctrl.rdQLenPdf::27                       0                       # What read queue length does an incoming req see
system.mem_ctrl.rdQLenPdf::28                       0                       # What read queue length does an incoming req see
system.mem_ctrl.rdQLenPdf::29                       0                       # What read queue length does an incoming req see
system.mem_ctrl.rdQLenPdf::30                       0                       # What read queue length does an incoming req see
system.mem_ctrl.rdQLenPdf::31                       0                       # What read queue length does an incoming req see
system.mem_ctrl.wrQLenPdf::0                        1                       # What write queue length does an incoming req see
system.mem_ctrl.wrQLenPdf::1                        1                       # What write queue length does an incoming req see
system.mem_ctrl.wrQLenPdf::2                        1                       # What write queue length does an incoming req see
system.mem_ctrl.wrQLenPdf::3                        1                       # What write queue length does an incoming req see
system.mem_ctrl.wrQLenPdf::4                        1                       # What write queue length does an incoming req see
system.mem_ctrl.wrQLenPdf::5                        1                       # What write queue length does an incoming req see
system.mem_ctrl.wrQLenPdf::6                        1                       # What write queue length does an incoming req see
system.mem_ctrl.wrQLenPdf::7                        1                       # What write queue length does an incoming req see
system.mem_ctrl.wrQLenPdf::8                        1                       # What write queue length does an incoming req see
system.mem_ctrl.wrQLenPdf::9                        1                       # What write queue length does an incoming req see
system.mem_ctrl.wrQLenPdf::10                       1                       # What write queue length does an incoming req see
system.mem_ctrl.wrQLenPdf::11                       1                       # What write queue length does an incoming req see
system.mem_ctrl.wrQLenPdf::12                       1                       # What write queue length does an incoming req see
system.mem_ctrl.wrQLenPdf::13                       1                       # What write queue length does an incoming req see
system.mem_ctrl.wrQLenPdf::14                       1                       # What write queue length does an incoming req see
system.mem_ctrl.wrQLenPdf::15                      41                       # What write queue length does an incoming req see
system.mem_ctrl.wrQLenPdf::16                      42                       # What write queue length does an incoming req see
system.mem_ctrl.wrQLenPdf::17                      75                       # What write queue length does an incoming req see
system.mem_ctrl.wrQLenPdf::18                      74                       # What write queue length does an incoming req see
system.mem_ctrl.wrQLenPdf::19                      75                       # What write queue length does an incoming req see
system.mem_ctrl.wrQLenPdf::20                      74                       # What write queue length does an incoming req see
system.mem_ctrl.wrQLenPdf::21                      74                       # What write queue length does an incoming req see
system.mem_ctrl.wrQLenPdf::22                      74                       # What write queue length does an incoming req see
system.mem_ctrl.wrQLenPdf::23                      74                       # What write queue length does an incoming req see
system.mem_ctrl.wrQLenPdf::24                      74                       # What write queue length does an incoming req see
system.mem_ctrl.wrQLenPdf::25                      74                       # What write queue length does an incoming req see
system.mem_ctrl.wrQLenPdf::26                      75                       # What write queue length does an incoming req see
system.mem_ctrl.wrQLenPdf::27                      78                       # What write queue length does an incoming req see
system.mem_ctrl.wrQLenPdf::28                      74                       # What write queue length does an incoming req see
system.mem_ctrl.wrQLenPdf::29                      74                       # What write queue length does an incoming req see
system.mem_ctrl.wrQLenPdf::30                      74                       # What write queue length does an incoming req see
system.mem_ctrl.wrQLenPdf::31                      73                       # What write queue length does an incoming req see
system.mem_ctrl.wrQLenPdf::32                      73                       # What write queue length does an incoming req see
system.mem_ctrl.wrQLenPdf::33                       0                       # What write queue length does an incoming req see
system.mem_ctrl.wrQLenPdf::34                       0                       # What write queue length does an incoming req see
system.mem_ctrl.wrQLenPdf::35                       0                       # What write queue length does an incoming req see
system.mem_ctrl.wrQLenPdf::36                       0                       # What write queue length does an incoming req see
system.mem_ctrl.wrQLenPdf::37                       0                       # What write queue length does an incoming req see
system.mem_ctrl.wrQLenPdf::38                       0                       # What write queue length does an incoming req see
system.mem_ctrl.wrQLenPdf::39                       0                       # What write queue length does an incoming req see
system.mem_ctrl.wrQLenPdf::40                       0                       # What write queue length does an incoming req see
system.mem_ctrl.wrQLenPdf::41                       0                       # What write queue length does an incoming req see
system.mem_ctrl.wrQLenPdf::42                       0                       # What write queue length does an incoming req see
system.mem_ctrl.wrQLenPdf::43                       0                       # What write queue length does an incoming req see
system.mem_ctrl.wrQLenPdf::44                       0                       # What write queue length does an incoming req see
system.mem_ctrl.wrQLenPdf::45                       0                       # What write queue length does an incoming req see
system.mem_ctrl.wrQLenPdf::46                       0                       # What write queue length does an incoming req see
system.mem_ctrl.wrQLenPdf::47                       0                       # What write queue length does an incoming req see
system.mem_ctrl.wrQLenPdf::48                       0                       # What write queue length does an incoming req see
system.mem_ctrl.wrQLenPdf::49                       0                       # What write queue length does an incoming req see
system.mem_ctrl.wrQLenPdf::50                       0                       # What write queue length does an incoming req see
system.mem_ctrl.wrQLenPdf::51                       0                       # What write queue length does an incoming req see
system.mem_ctrl.wrQLenPdf::52                       0                       # What write queue length does an incoming req see
system.mem_ctrl.wrQLenPdf::53                       0                       # What write queue length does an incoming req see
system.mem_ctrl.wrQLenPdf::54                       0                       # What write queue length does an incoming req see
system.mem_ctrl.wrQLenPdf::55                       0                       # What write queue length does an incoming req see
system.mem_ctrl.wrQLenPdf::56                       0                       # What write queue length does an incoming req see
system.mem_ctrl.wrQLenPdf::57                       0                       # What write queue length does an incoming req see
system.mem_ctrl.wrQLenPdf::58                       0                       # What write queue length does an incoming req see
system.mem_ctrl.wrQLenPdf::59                       0                       # What write queue length does an incoming req see
system.mem_ctrl.wrQLenPdf::60                       0                       # What write queue length does an incoming req see
system.mem_ctrl.wrQLenPdf::61                       0                       # What write queue length does an incoming req see
system.mem_ctrl.wrQLenPdf::62                       0                       # What write queue length does an incoming req see
system.mem_ctrl.wrQLenPdf::63                       0                       # What write queue length does an incoming req see
system.mem_ctrl.bytesPerActivate::samples         1363                       # Bytes accessed per row activation
system.mem_ctrl.bytesPerActivate::mean     239.706530                       # Bytes accessed per row activation
system.mem_ctrl.bytesPerActivate::gmean    154.318909                       # Bytes accessed per row activation
system.mem_ctrl.bytesPerActivate::stdev    263.574629                       # Bytes accessed per row activation
system.mem_ctrl.bytesPerActivate::0-127           490     35.95%     35.95% # Bytes accessed per row activation
system.mem_ctrl.bytesPerActivate::128-255          460     33.75%     69.70% # Bytes accessed per row activation
system.mem_ctrl.bytesPerActivate::256-383          139     10.20%     79.90% # Bytes accessed per row activation
system.mem_ctrl.bytesPerActivate::384-511           79      5.80%     85.69% # Bytes accessed per row activation
system.mem_ctrl.bytesPerActivate::512-639           45      3.30%     88.99% # Bytes accessed per row activation
system.mem_ctrl.bytesPerActivate::640-767           30      2.20%     91.20% # Bytes accessed per row activation
system.mem_ctrl.bytesPerActivate::768-895           26      1.91%     93.10% # Bytes accessed per row activation
system.mem_ctrl.bytesPerActivate::896-1023           23      1.69%     94.79% # Bytes accessed per row activation
system.mem_ctrl.bytesPerActivate::1024-1151           71      5.21%    100.00% # Bytes accessed per row activation
system.mem_ctrl.bytesPerActivate::total          1363                       # Bytes accessed per row activation
system.mem_ctrl.rdPerTurnAround::samples           73                       # Reads before turning the bus around for writes
system.mem_ctrl.rdPerTurnAround::mean       52.520548                       # Reads before turning the bus around for writes
system.mem_ctrl.rdPerTurnAround::gmean      31.410462                       # Reads before turning the bus around for writes
system.mem_ctrl.rdPerTurnAround::stdev      96.184445                       # Reads before turning the bus around for writes
system.mem_ctrl.rdPerTurnAround::0-31              45     61.64%     61.64% # Reads before turning the bus around for writes
system.mem_ctrl.rdPerTurnAround::32-63             18     24.66%     86.30% # Reads before turning the bus around for writes
system.mem_ctrl.rdPerTurnAround::64-95              3      4.11%     90.41% # Reads before turning the bus around for writes
system.mem_ctrl.rdPerTurnAround::96-127             2      2.74%     93.15% # Reads before turning the bus around for writes
system.mem_ctrl.rdPerTurnAround::192-223            2      2.74%     95.89% # Reads before turning the bus around for writes
system.mem_ctrl.rdPerTurnAround::256-287            2      2.74%     98.63% # Reads before turning the bus around for writes
system.mem_ctrl.rdPerTurnAround::704-735            1      1.37%    100.00% # Reads before turning the bus around for writes
system.mem_ctrl.rdPerTurnAround::total             73                       # Reads before turning the bus around for writes
system.mem_ctrl.wrPerTurnAround::samples           73                       # Writes before turning the bus around for reads
system.mem_ctrl.wrPerTurnAround::mean       17.205479                       # Writes before turning the bus around for reads
system.mem_ctrl.wrPerTurnAround::gmean      17.169634                       # Writes before turning the bus around for reads
system.mem_ctrl.wrPerTurnAround::stdev       1.117523                       # Writes before turning the bus around for reads
system.mem_ctrl.wrPerTurnAround::16                32     43.84%     43.84% # Writes before turning the bus around for reads
system.mem_ctrl.wrPerTurnAround::17                 1      1.37%     45.21% # Writes before turning the bus around for reads
system.mem_ctrl.wrPerTurnAround::18                33     45.21%     90.41% # Writes before turning the bus around for reads
system.mem_ctrl.wrPerTurnAround::19                 7      9.59%    100.00% # Writes before turning the bus around for reads
system.mem_ctrl.wrPerTurnAround::total             73                       # Writes before turning the bus around for reads
system.mem_ctrl.bytesReadDRAM                  246400                       # Total number of bytes read from DRAM
system.mem_ctrl.bytesReadWrQ                    22400                       # Total number of bytes read from write queue
system.mem_ctrl.bytesWritten                    80384                       # Total number of bytes written to DRAM
system.mem_ctrl.bytesReadSys                   268800                       # Total read bytes from the system interface side
system.mem_ctrl.bytesWrittenSys                107584                       # Total written bytes from the system interface side
system.mem_ctrl.avgRdBW                         67.23                       # Average DRAM read bandwidth in MiByte/s
system.mem_ctrl.avgWrBW                         21.93                       # Average achieved write bandwidth in MiByte/s
system.mem_ctrl.avgRdBWSys                      73.34                       # Average system read bandwidth in MiByte/s
system.mem_ctrl.avgWrBWSys                      29.35                       # Average system write bandwidth in MiByte/s
system.mem_ctrl.peakBW                       12800.00                       # Theoretical peak bandwidth in MiByte/s
system.mem_ctrl.busUtil                          0.70                       # Data bus utilization in percentage
system.mem_ctrl.busUtilRead                      0.53                       # Data bus utilization in percentage for reads
system.mem_ctrl.busUtilWrite                     0.17                       # Data bus utilization in percentage for writes
system.mem_ctrl.totGap                     3660035000                       # Total gap between requests
system.mem_ctrl.avgGap                      622349.09                       # Average gap between requests
system.mem_ctrl.masterReadBytes::.cpu.inst        91392                       # Per-master bytes read from memory
system.mem_ctrl.masterReadBytes::.cpu.data       155008                       # Per-master bytes read from memory
system.mem_ctrl.masterWriteBytes::.writebacks        80384                       # Per-master bytes write to memory
system.mem_ctrl.masterReadRate::.cpu.inst 24935316.655766744167                       # Per-master bytes read from memory rate (Bytes/sec)
system.mem_ctrl.masterReadRate::.cpu.data 42292252.759290650487                       # Per-master bytes read from memory rate (Bytes/sec)
system.mem_ctrl.masterWriteRate::.writebacks 21931903.165016125888                       # Per-master bytes write to memory rate (Bytes/sec)
system.mem_ctrl.masterReadAccesses::.cpu.inst         1428                       # Per-master read serviced memory accesses
system.mem_ctrl.masterReadAccesses::.cpu.data         2772                       # Per-master read serviced memory accesses
system.mem_ctrl.masterWriteAccesses::.writebacks         1681                       # Per-master write serviced memory accesses
system.mem_ctrl.masterReadTotalLat::.cpu.inst     38362500                       # Per-master read total memory access latency
system.mem_ctrl.masterReadTotalLat::.cpu.data     66891000                       # Per-master read total memory access latency
system.mem_ctrl.masterWriteTotalLat::.writebacks  82399233500                       # Per-master write total memory access latency
system.mem_ctrl.masterReadAvgLat::.cpu.inst     26864.50                       # Per-master read average memory access latency
system.mem_ctrl.masterReadAvgLat::.cpu.data     24130.95                       # Per-master read average memory access latency
system.mem_ctrl.masterWriteAvgLat::.writebacks  49017985.43                       # Per-master write average memory access latency
system.mem_ctrl.pageHitRate                     72.84                       # Row buffer hit rate, read and write combined
system.mem_ctrl.rank1.actEnergy               4912320                       # Energy for activate commands per rank (pJ)
system.mem_ctrl.rank1.preEnergy               2607165                       # Energy for precharge commands per rank (pJ)
system.mem_ctrl.rank1.readEnergy             11145540                       # Energy for read commands per rank (pJ)
system.mem_ctrl.rank1.writeEnergy             2536920                       # Energy for write commands per rank (pJ)
system.mem_ctrl.rank1.refreshEnergy      288880800.000000                       # Energy for refresh commands per rank (pJ)
system.mem_ctrl.rank1.actBackEnergy        1012743510                       # Energy for active background per rank (pJ)
system.mem_ctrl.rank1.preBackEnergy         554586240                       # Energy for precharge background per rank (pJ)
system.mem_ctrl.rank1.actPowerDownEnergy            0                       # Energy for active power-down per rank (pJ)
system.mem_ctrl.rank1.prePowerDownEnergy            0                       # Energy for precharge power-down per rank (pJ)
system.mem_ctrl.rank1.selfRefreshEnergy             0                       # Energy for self refresh per rank (pJ)
system.mem_ctrl.rank1.totalEnergy          1877412495                       # Total energy per rank (pJ)
system.mem_ctrl.rank1.averagePower         512.231651                       # Core power per rank (mW)
system.mem_ctrl.rank1.totalIdleTime                 0                       # Total Idle time Per DRAM Rank
system.mem_ctrl.rank1.memoryStateTime::IDLE   1432161250                       # Time in different power states
system.mem_ctrl.rank1.memoryStateTime::REF    122200000                       # Time in different power states
system.mem_ctrl.rank1.memoryStateTime::SREF            0                       # Time in different power states
system.mem_ctrl.rank1.memoryStateTime::PRE_PDN            0                       # Time in different power states
system.mem_ctrl.rank1.memoryStateTime::ACT   2110801750                       # Time in different power states
system.mem_ctrl.rank1.memoryStateTime::ACT_PDN            0                       # Time in different power states
system.mem_ctrl.rank0.actEnergy               4826640                       # Energy for activate commands per rank (pJ)
system.mem_ctrl.rank0.preEnergy               2565420                       # Energy for precharge commands per rank (pJ)
system.mem_ctrl.rank0.readEnergy             16343460                       # Energy for read commands per rank (pJ)
system.mem_ctrl.rank0.writeEnergy             4019400                       # Energy for write commands per rank (pJ)
system.mem_ctrl.rank0.refreshEnergy      288880800.000000                       # Energy for refresh commands per rank (pJ)
system.mem_ctrl.rank0.actBackEnergy         448263390                       # Energy for active background per rank (pJ)
system.mem_ctrl.rank0.preBackEnergy        1029937920                       # Energy for precharge background per rank (pJ)
system.mem_ctrl.rank0.actPowerDownEnergy            0                       # Energy for active power-down per rank (pJ)
system.mem_ctrl.rank0.prePowerDownEnergy            0                       # Energy for precharge power-down per rank (pJ)
system.mem_ctrl.rank0.selfRefreshEnergy             0                       # Energy for self refresh per rank (pJ)
system.mem_ctrl.rank0.totalEnergy          1794837030                       # Total energy per rank (pJ)
system.mem_ctrl.rank0.averagePower         489.701830                       # Core power per rank (mW)
system.mem_ctrl.rank0.totalIdleTime                 0                       # Total Idle time Per DRAM Rank
system.mem_ctrl.rank0.memoryStateTime::IDLE   2673045000                       # Time in different power states
system.mem_ctrl.rank0.memoryStateTime::REF    122200000                       # Time in different power states
system.mem_ctrl.rank0.memoryStateTime::SREF            0                       # Time in different power states
system.mem_ctrl.rank0.memoryStateTime::PRE_PDN            0                       # Time in different power states
system.mem_ctrl.rank0.memoryStateTime::ACT    869918000                       # Time in different power states
system.mem_ctrl.rank0.memoryStateTime::ACT_PDN            0                       # Time in different power states
system.mem_ctrl.power_state.pwrStateResidencyTicks::UNDEFINED   3665163000                       # Cumulative time (in ticks) in various power states
system.cache_medium.blocked_cycles::no_mshrs            0                       # number of cycles access was blocked
system.cache_medium.blocked_cycles::no_targets            0                       # number of cycles access was blocked
system.cache_medium.blocked::no_mshrs               0                       # number of cycles access was blocked
system.cache_medium.blocked::no_targets             0                       # number of cycles access was blocked
system.cache_medium.avg_blocked_cycles::no_mshrs          nan                       # average number of cycles each access was blocked
system.cache_medium.avg_blocked_cycles::no_targets          nan                       # average number of cycles each access was blocked
system.cache_medium.replacements                    0                       # number of replacements
system.cache_medium.power_state.pwrStateResidencyTicks::UNDEFINED   3665163000                       # Cumulative time (in ticks) in various power states
system.cache_medium.tags.tagsinuse                  0                       # Cycle average of tags in use
system.cache_medium.tags.total_refs                 0                       # Total number of references to valid blocks.
system.cache_medium.tags.sampled_refs               0                       # Sample count of references to valid blocks.
system.cache_medium.tags.avg_refs                 nan                       # Average number of references to valid blocks.
system.cache_medium.tags.warmup_cycle               0                       # Cycle when the warmup percentage was hit.
system.cache_medium.tags.tag_accesses               0                       # Number of tag accesses
system.cache_medium.tags.data_accesses              0                       # Number of data accesses
system.cache_medium.tags.power_state.pwrStateResidencyTicks::UNDEFINED   3665163000                       # Cumulative time (in ticks) in various power states
system.clk_domain.clock                          1000                       # Clock period in ticks
system.clk_domain.voltage_domain.voltage            1                       # Voltage in Volts
system.dcache.demand_hits::.cpu.data           240193                       # number of demand (read+write) hits
system.dcache.demand_hits::total               240193                       # number of demand (read+write) hits
system.dcache.overall_hits::.cpu.data          240209                       # number of overall hits
system.dcache.overall_hits::total              240209                       # number of overall hits
system.dcache.demand_misses::.cpu.data           4123                       # number of demand (read+write) misses
system.dcache.demand_misses::total               4123                       # number of demand (read+write) misses
system.dcache.overall_misses::.cpu.data          4128                       # number of overall misses
system.dcache.overall_misses::total              4128                       # number of overall misses
system.dcache.demand_miss_latency::.cpu.data    211614000                       # number of demand (read+write) miss cycles
system.dcache.demand_miss_latency::total    211614000                       # number of demand (read+write) miss cycles
system.dcache.overall_miss_latency::.cpu.data    212127000                       # number of overall miss cycles
system.dcache.overall_miss_latency::total    212127000                       # number of overall miss cycles
system.dcache.demand_accesses::.cpu.data       244316                       # number of demand (read+write) accesses
system.dcache.demand_accesses::total           244316                       # number of demand (read+write) accesses
system.dcache.overall_accesses::.cpu.data       244337                       # number of overall (read+write) accesses
system.dcache.overall_accesses::total          244337                       # number of overall (read+write) accesses
system.dcache.demand_miss_rate::.cpu.data     0.016876                       # miss rate for demand accesses
system.dcache.demand_miss_rate::total        0.016876                       # miss rate for demand accesses
system.dcache.overall_miss_rate::.cpu.data     0.016895                       # miss rate for overall accesses
system.dcache.overall_miss_rate::total       0.016895                       # miss rate for overall accesses
system.dcache.demand_avg_miss_latency::.cpu.data 51325.248605                       # average overall miss latency
system.dcache.demand_avg_miss_latency::total 51325.248605                       # average overall miss latency
system.dcache.overall_avg_miss_latency::.cpu.data 51387.354651                       # average overall miss latency
system.dcache.overall_avg_miss_latency::total 51387.354651                       # average overall miss latency
system.dcache.blocked_cycles::no_mshrs              0                       # number of cycles access was blocked
system.dcache.blocked_cycles::no_targets            0                       # number of cycles access was blocked
system.dcache.blocked::no_mshrs                     0                       # number of cycles access was blocked
system.dcache.blocked::no_targets                   0                       # number of cycles access was blocked
system.dcache.avg_blocked_cycles::no_mshrs          nan                       # average number of cycles each access was blocked
system.dcache.avg_blocked_cycles::no_targets          nan                       # average number of cycles each access was blocked
system.dcache.writebacks::.writebacks            2415                       # number of writebacks
system.dcache.writebacks::total                  2415                       # number of writebacks
system.dcache.demand_mshr_misses::.cpu.data         4123                       # number of demand (read+write) MSHR misses
system.dcache.demand_mshr_misses::total          4123                       # number of demand (read+write) MSHR misses
system.dcache.overall_mshr_misses::.cpu.data         4128                       # number of overall MSHR misses
system.dcache.overall_mshr_misses::total         4128                       # number of overall MSHR misses
system.dcache.demand_mshr_miss_latency::.cpu.data    203370000                       # number of demand (read+write) MSHR miss cycles
system.dcache.demand_mshr_miss_latency::total    203370000                       # number of demand (read+write) MSHR miss cycles
system.dcache.overall_mshr_miss_latency::.cpu.data    203873000                       # number of overall MSHR miss cycles
system.dcache.overall_mshr_miss_latency::total    203873000                       # number of overall MSHR miss cycles
system.dcache.demand_mshr_miss_rate::.cpu.data     0.016876                       # mshr miss rate for demand accesses
system.dcache.demand_mshr_miss_rate::total     0.016876                       # mshr miss rate for demand accesses
system.dcache.overall_mshr_miss_rate::.cpu.data     0.016895                       # mshr miss rate for overall accesses
system.dcache.overall_mshr_miss_rate::total     0.016895                       # mshr miss rate for overall accesses
system.dcache.demand_avg_mshr_miss_latency::.cpu.data 49325.733689                       # average overall mshr miss latency
system.dcache.demand_avg_mshr_miss_latency::total 49325.733689                       # average overall mshr miss latency
system.dcache.overall_avg_mshr_miss_latency::.cpu.data 49387.839147                       # average overall mshr miss latency
system.dcache.overall_avg_mshr_miss_latency::total 49387.839147                       # average overall mshr miss latency
system.dcache.replacements                       3871                       # number of replacements
system.dcache.ReadReq_hits::.cpu.data          190157                       # number of ReadReq hits
system.dcache.ReadReq_hits::total              190157                       # number of ReadReq hits
system.dcache.ReadReq_misses::.cpu.data          1609                       # number of ReadReq misses
system.dcache.ReadReq_misses::total              1609                       # number of ReadReq misses
system.dcache.ReadReq_miss_latency::.cpu.data     74736000                       # number of ReadReq miss cycles
system.dcache.ReadReq_miss_latency::total     74736000                       # number of ReadReq miss cycles
system.dcache.ReadReq_accesses::.cpu.data       191766                       # number of ReadReq accesses(hits+misses)
system.dcache.ReadReq_accesses::total          191766                       # number of ReadReq accesses(hits+misses)
system.dcache.ReadReq_miss_rate::.cpu.data     0.008390                       # miss rate for ReadReq accesses
system.dcache.ReadReq_miss_rate::total       0.008390                       # miss rate for ReadReq accesses
system.dcache.ReadReq_avg_miss_latency::.cpu.data 46448.725917                       # average ReadReq miss latency
system.dcache.ReadReq_avg_miss_latency::total 46448.725917                       # average ReadReq miss latency
system.dcache.ReadReq_mshr_misses::.cpu.data         1609                       # number of ReadReq MSHR misses
system.dcache.ReadReq_mshr_misses::total         1609                       # number of ReadReq MSHR misses
system.dcache.ReadReq_mshr_miss_latency::.cpu.data     71518000                       # number of ReadReq MSHR miss cycles
system.dcache.ReadReq_mshr_miss_latency::total     71518000                       # number of ReadReq MSHR miss cycles
system.dcache.ReadReq_mshr_miss_rate::.cpu.data     0.008390                       # mshr miss rate for ReadReq accesses
system.dcache.ReadReq_mshr_miss_rate::total     0.008390                       # mshr miss rate for ReadReq accesses
system.dcache.ReadReq_avg_mshr_miss_latency::.cpu.data 44448.725917                       # average ReadReq mshr miss latency
system.dcache.ReadReq_avg_mshr_miss_latency::total 44448.725917                       # average ReadReq mshr miss latency
system.dcache.WriteReq_hits::.cpu.data          50036                       # number of WriteReq hits
system.dcache.WriteReq_hits::total              50036                       # number of WriteReq hits
system.dcache.WriteReq_misses::.cpu.data         2514                       # number of WriteReq misses
system.dcache.WriteReq_misses::total             2514                       # number of WriteReq misses
system.dcache.WriteReq_miss_latency::.cpu.data    136878000                       # number of WriteReq miss cycles
system.dcache.WriteReq_miss_latency::total    136878000                       # number of WriteReq miss cycles
system.dcache.WriteReq_accesses::.cpu.data        52550                       # number of WriteReq accesses(hits+misses)
system.dcache.WriteReq_accesses::total          52550                       # number of WriteReq accesses(hits+misses)
system.dcache.WriteReq_miss_rate::.cpu.data     0.047840                       # miss rate for WriteReq accesses
system.dcache.WriteReq_miss_rate::total      0.047840                       # miss rate for WriteReq accesses
system.dcache.WriteReq_avg_miss_latency::.cpu.data 54446.300716                       # average WriteReq miss latency
system.dcache.WriteReq_avg_miss_latency::total 54446.300716                       # average WriteReq miss latency
system.dcache.WriteReq_mshr_misses::.cpu.data         2514                       # number of WriteReq MSHR misses
system.dcache.WriteReq_mshr_misses::total         2514                       # number of WriteReq MSHR misses
system.dcache.WriteReq_mshr_miss_latency::.cpu.data    131852000                       # number of WriteReq MSHR miss cycles
system.dcache.WriteReq_mshr_miss_latency::total    131852000                       # number of WriteReq MSHR miss cycles
system.dcache.WriteReq_mshr_miss_rate::.cpu.data     0.047840                       # mshr miss rate for WriteReq accesses
system.dcache.WriteReq_mshr_miss_rate::total     0.047840                       # mshr miss rate for WriteReq accesses
system.dcache.WriteReq_avg_mshr_miss_latency::.cpu.data 52447.096261                       # average WriteReq mshr miss latency
system.dcache.WriteReq_avg_mshr_miss_latency::total 52447.096261                       # average WriteReq mshr miss latency
system.dcache.SoftPFReq_hits::.cpu.data            16                       # number of SoftPFReq hits
system.dcache.SoftPFReq_hits::total                16                       # number of SoftPFReq hits
system.dcache.SoftPFReq_misses::.cpu.data            5                       # number of SoftPFReq misses
system.dcache.SoftPFReq_misses::total               5                       # number of SoftPFReq misses
system.dcache.SoftPFReq_miss_latency::.cpu.data       513000                       # number of SoftPFReq miss cycles
system.dcache.SoftPFReq_miss_latency::total       513000                       # number of SoftPFReq miss cycles
system.dcache.SoftPFReq_accesses::.cpu.data           21                       # number of SoftPFReq accesses(hits+misses)
system.dcache.SoftPFReq_accesses::total            21                       # number of SoftPFReq accesses(hits+misses)
system.dcache.SoftPFReq_miss_rate::.cpu.data     0.238095                       # miss rate for SoftPFReq accesses
system.dcache.SoftPFReq_miss_rate::total     0.238095                       # miss rate for SoftPFReq accesses
system.dcache.SoftPFReq_avg_miss_latency::.cpu.data       102600                       # average SoftPFReq miss latency
system.dcache.SoftPFReq_avg_miss_latency::total       102600                       # average SoftPFReq miss latency
system.dcache.SoftPFReq_mshr_misses::.cpu.data            5                       # number of SoftPFReq MSHR misses
system.dcache.SoftPFReq_mshr_misses::total            5                       # number of SoftPFReq MSHR misses
system.dcache.SoftPFReq_mshr_miss_latency::.cpu.data       503000                       # number of SoftPFReq MSHR miss cycles
system.dcache.SoftPFReq_mshr_miss_latency::total       503000                       # number of SoftPFReq MSHR miss cycles
system.dcache.SoftPFReq_mshr_miss_rate::.cpu.data     0.238095                       # mshr miss rate for SoftPFReq accesses
system.dcache.SoftPFReq_mshr_miss_rate::total     0.238095                       # mshr miss rate for SoftPFReq accesses
system.dcache.SoftPFReq_avg_mshr_miss_latency::.cpu.data       100600                       # average SoftPFReq mshr miss latency
system.dcache.SoftPFReq_avg_mshr_miss_latency::total       100600                       # average SoftPFReq mshr miss latency
system.dcache.power_state.pwrStateResidencyTicks::UNDEFINED   3665163000                       # Cumulative time (in ticks) in various power states
system.dcache.tags.tagsinuse               247.489975                       # Cycle average of tags in use
system.dcache.tags.total_refs                  189303                       # Total number of references to valid blocks.
system.dcache.tags.sampled_refs                  3871                       # Sample count of references to valid blocks.
system.dcache.tags.avg_refs                 48.902867                       # Average number of references to valid blocks.
system.dcache.tags.warmup_cycle                167000                       # Cycle when the warmup percentage was hit.
system.dcache.tags.occ_blocks::.cpu.data   247.489975                       # Average occupied blocks per requestor
system.dcache.tags.occ_percent::.cpu.data     0.966758                       # Average percentage of cache occupancy
system.dcache.tags.occ_percent::total        0.966758                       # Average percentage of cache occupancy
system.dcache.tags.occ_task_id_blocks::1024          256                       # Occupied blocks per task id
system.dcache.tags.age_task_id_blocks_1024::0            2                       # Occupied blocks per task id
system.dcache.tags.age_task_id_blocks_1024::1           18                       # Occupied blocks per task id
system.dcache.tags.age_task_id_blocks_1024::2          184                       # Occupied blocks per task id
system.dcache.tags.age_task_id_blocks_1024::3           52                       # Occupied blocks per task id
system.dcache.tags.occ_task_id_percent::1024            1                       # Percentage of cache occupancy per task id
system.dcache.tags.tag_accesses                248464                       # Number of tag accesses
system.dcache.tags.data_accesses               248464                       # Number of data accesses
system.dcache.tags.power_state.pwrStateResidencyTicks::UNDEFINED   3665163000                       # Cumulative time (in ticks) in various power states
system.cache_large.blocked_cycles::no_mshrs            0                       # number of cycles access was blocked
system.cache_large.blocked_cycles::no_targets            0                       # number of cycles access was blocked
system.cache_large.blocked::no_mshrs                0                       # number of cycles access was blocked
system.cache_large.blocked::no_targets              0                       # number of cycles access was blocked
system.cache_large.avg_blocked_cycles::no_mshrs          nan                       # average number of cycles each access was blocked
system.cache_large.avg_blocked_cycles::no_targets          nan                       # average number of cycles each access was blocked
system.cache_large.replacements                     0                       # number of replacements
system.cache_large.power_state.pwrStateResidencyTicks::UNDEFINED   3665163000                       # Cumulative time (in ticks) in various power states
system.cache_large.tags.tagsinuse                   0                       # Cycle average of tags in use
system.cache_large.tags.total_refs                  0                       # Total number of references to valid blocks.
system.cache_large.tags.sampled_refs                0                       # Sample count of references to valid blocks.
system.cache_large.tags.avg_refs                  nan                       # Average number of references to valid blocks.
system.cache_large.tags.warmup_cycle                0                       # Cycle when the warmup percentage was hit.
system.cache_large.tags.tag_accesses                0                       # Number of tag accesses
system.cache_large.tags.data_accesses               0                       # Number of data accesses
system.cache_large.tags.power_state.pwrStateResidencyTicks::UNDEFINED   3665163000                       # Cumulative time (in ticks) in various power states
system.l2cache.demand_hits::.cpu.inst             176                       # number of demand (read+write) hits
system.l2cache.demand_hits::.cpu.data            1355                       # number of demand (read+write) hits
system.l2cache.demand_hits::total                1531                       # number of demand (read+write) hits
[...]
system.dcache.tags.age_task_id_blocks_1024::2          186                       # Occupied blocks per task id
system.dcache.tags.age_task_id_blocks_1024::3           48                       # Occupied blocks per task id
system.dcache.tags.occ_task_id_percent::1024            1                       # Percentage of cache occupancy per task id
system.dcache.tags.tag_accesses               1111245                       # Number of tag accesses
system.dcache.tags.data_accesses              1111245                       # Number of data accesses
system.dcache.tags.power_state.pwrStateResidencyTicks::UNDEFINED  17476438000                       # Cumulative time (in ticks) in various power states
system.cache_large.blocked_cycles::no_mshrs            0                       # number of cycles access was blocked
system.cache_large.blocked_cycles::no_targets            0                       # number of cycles access was blocked
system.cache_large.blocked::no_mshrs                0                       # number of cycles access was blocked
system.cache_large.blocked::no_targets              0                       # number of cycles access was blocked
system.cache_large.avg_blocked_cycles::no_mshrs          nan                       # average number of cycles each access was blocked
system.cache_large.avg_blocked_cycles::no_targets          nan                       # average number of cycles each access was blocked
system.cache_large.replacements                     0                       # number of replacements
system.cache_large.power_state.pwrStateResidencyTicks::UNDEFINED  17476438000                       # Cumulative time (in ticks) in various power states
system.cache_large.tags.tagsinuse                   0                       # Cycle average of tags in use
system.cache_large.tags.total_refs                  0                       # Total number of references to valid blocks.
system.cache_large.tags.sampled_refs                0                       # Sample count of references to valid blocks.
system.cache_large.tags.avg_refs                  nan                       # Average number of references to valid blocks.
system.cache_large.tags.warmup_cycle                0                       # Cycle when the warmup percentage was hit.
system.cache_large.tags.tag_accesses                0                       # Number of tag accesses
system.cache_large.tags.data_accesses               0                       # Number of data accesses
system.cache_large.tags.power_state.pwrStateResidencyTicks::UNDEFINED  17476438000                       # Cumulative time (in ticks) in various power states
system.l2cache.demand_hits::.cpu.inst             176                       # number of demand (read+write) hits
system.l2cache.demand_hits::.cpu.data            5128                       # number of demand (read+write) hits
system.l2cache.demand_hits::total                5304                       # number of demand (read+write) hits
system.l2cache.overall_hits::.cpu.inst            176                       # number of overall hits
system.l2cache.overall_hits::.cpu.data           5128                       # number of overall hits
system.l2cache.overall_hits::total               5304                       # number of overall hits
system.l2cache.demand_misses::.cpu.inst          1454                       # number of demand (read+write) misses
system.l2cache.demand_misses::.cpu.data          6810                       # number of demand (read+write) misses
system.l2cache.demand_misses::total              8264                       # number of demand (read+write) misses
system.l2cache.overall_misses::.cpu.inst         1454                       # number of overall misses
system.l2cache.overall_misses::.cpu.data         6810                       # number of overall misses
system.l2cache.overall_misses::total             8264                       # number of overall misses
system.l2cache.demand_miss_latency::.cpu.inst     97862000                       # number of demand (read+write) miss cycles
system.l2cache.demand_miss_latency::.cpu.data    449127000                       # number of demand (read+write) miss cycles
system.l2cache.demand_miss_latency::total    546989000                       # number of demand (read+write) miss cycles
system.l2cache.overall_miss_latency::.cpu.inst     97862000                       # number of overall miss cycles
system.l2cache.overall_miss_latency::.cpu.data    449127000                       # number of overall miss cycles
system.l2cache.overall_miss_latency::total    546989000                       # number of overall miss cycles
system.l2cache.demand_accesses::.cpu.inst         1630                       # number of demand (read+write) accesses
system.l2cache.demand_accesses::.cpu.data        11938                       # number of demand (read+write) accesses
system.l2cache.demand_accesses::total           13568                       # number of demand (read+write) accesses
system.l2cache.overall_accesses::.cpu.inst         1630                       # number of overall (read+write) accesses
system.l2cache.overall_accesses::.cpu.data        11938                       # number of overall (read+write) accesses
system.l2cache.overall_accesses::total          13568                       # number of overall (read+write) accesses
system.l2cache.demand_miss_rate::.cpu.inst     0.892025                       # miss rate for demand accesses
system.l2cache.demand_miss_rate::.cpu.data     0.570447                       # miss rate for demand accesses
system.l2cache.demand_miss_rate::total       0.609080                       # miss rate for demand accesses
system.l2cache.overall_miss_rate::.cpu.inst     0.892025                       # miss rate for overall accesses
system.l2cache.overall_miss_rate::.cpu.data     0.570447                       # miss rate for overall accesses
system.l2cache.overall_miss_rate::total      0.609080                       # miss rate for overall accesses
system.l2cache.demand_avg_miss_latency::.cpu.inst 67305.364512                       # average overall miss latency
system.l2cache.demand_avg_miss_latency::.cpu.data 65951.101322                       # average overall miss latency
system.l2cache.demand_avg_miss_latency::total 66189.375605                       # average overall miss latency
system.l2cache.overall_avg_miss_latency::.cpu.inst 67305.364512                       # average overall miss latency
system.l2cache.overall_avg_miss_latency::.cpu.data 65951.101322                       # average overall miss latency
system.l2cache.overall_avg_miss_latency::total 66189.375605                       # average overall miss latency
system.l2cache.blocked_cycles::no_mshrs             0                       # number of cycles access was blocked
system.l2cache.blocked_cycles::no_targets            0                       # number of cycles access was blocked
system.l2cache.blocked::no_mshrs                    0                       # number of cycles access was blocked
system.l2cache.blocked::no_targets                  0                       # number of cycles access was blocked
system.l2cache.avg_blocked_cycles::no_mshrs          nan                       # average number of cycles each access was blocked
system.l2cache.avg_blocked_cycles::no_targets          nan                       # average number of cycles each access was blocked
system.l2cache.writebacks::.writebacks           6051                       # number of writebacks
system.l2cache.writebacks::total                 6051                       # number of writebacks
system.l2cache.demand_mshr_misses::.cpu.inst         1454                       # number of demand (read+write) MSHR misses
system.l2cache.demand_mshr_misses::.cpu.data         6810                       # number of demand (read+write) MSHR misses
system.l2cache.demand_mshr_misses::total         8264                       # number of demand (read+write) MSHR misses
system.l2cache.overall_mshr_misses::.cpu.inst         1454                       # number of overall MSHR misses
system.l2cache.overall_mshr_misses::.cpu.data         6810                       # number of overall MSHR misses
system.l2cache.overall_mshr_misses::total         8264                       # number of overall MSHR misses
system.l2cache.demand_mshr_miss_latency::.cpu.inst     94954000                       # number of demand (read+write) MSHR miss cycles
system.l2cache.demand_mshr_miss_latency::.cpu.data    435507000                       # number of demand (read+write) MSHR miss cycles
system.l2cache.demand_mshr_miss_latency::total    530461000                       # number of demand (read+write) MSHR miss cycles
system.l2cache.overall_mshr_miss_latency::.cpu.inst     94954000                       # number of overall MSHR miss cycles
system.l2cache.overall_mshr_miss_latency::.cpu.data    435507000                       # number of overall MSHR miss cycles
system.l2cache.overall_mshr_miss_latency::total    530461000                       # number of overall MSHR miss cycles
system.l2cache.demand_mshr_miss_rate::.cpu.inst     0.892025                       # mshr miss rate for demand accesses
system.l2cache.demand_mshr_miss_rate::.cpu.data     0.570447                       # mshr miss rate for demand accesses
system.l2cache.demand_mshr_miss_rate::total     0.609080                       # mshr miss rate for demand accesses
system.l2cache.overall_mshr_miss_rate::.cpu.inst     0.892025                       # mshr miss rate for overall accesses
system.l2cache.overall_mshr_miss_rate::.cpu.data     0.570447                       # mshr miss rate for overall accesses
system.l2cache.overall_mshr_miss_rate::total     0.609080                       # mshr miss rate for overall accesses
system.l2cache.demand_avg_mshr_miss_latency::.cpu.inst 65305.364512                       # average overall mshr miss latency
system.l2cache.demand_avg_mshr_miss_latency::.cpu.data 63951.101322                       # average overall mshr miss latency
system.l2cache.demand_avg_mshr_miss_latency::total 64189.375605                       # average overall mshr miss latency
system.l2cache.overall_avg_mshr_miss_latency::.cpu.inst 65305.364512                       # average overall mshr miss latency
system.l2cache.overall_avg_mshr_miss_latency::.cpu.data 63951.101322                       # average overall mshr miss latency
system.l2cache.overall_avg_mshr_miss_latency::total 64189.375605                       # average overall mshr miss latency
system.l2cache.replacements                     10631                       # number of replacements
system.l2cache.ReadReq_hits::.cpu.inst            176                       # number of ReadReq hits
system.l2cache.ReadReq_hits::.cpu.data           5128                       # number of ReadReq hits
system.l2cache.ReadReq_hits::total               5304                       # number of ReadReq hits
system.l2cache.ReadReq_misses::.cpu.inst         1454                       # number of ReadReq misses
system.l2cache.ReadReq_misses::.cpu.data         6810                       # number of ReadReq misses
system.l2cache.ReadReq_misses::total             8264                       # number of ReadReq misses
system.l2cache.ReadReq_miss_latency::.cpu.inst     97862000                       # number of ReadReq miss cycles
system.l2cache.ReadReq_miss_latency::.cpu.data    449127000                       # number of ReadReq miss cycles
system.l2cache.ReadReq_miss_latency::total    546989000                       # number of ReadReq miss cycles
system.l2cache.ReadReq_accesses::.cpu.inst         1630                       # number of ReadReq accesses(hits+misses)
system.l2cache.ReadReq_accesses::.cpu.data        11938                       # number of ReadReq accesses(hits+misses)
system.l2cache.ReadReq_accesses::total          13568                       # number of ReadReq accesses(hits+misses)
system.l2cache.ReadReq_miss_rate::.cpu.inst     0.892025                       # miss rate for ReadReq accesses
system.l2cache.ReadReq_miss_rate::.cpu.data     0.570447                       # miss rate for ReadReq accesses
system.l2cache.ReadReq_miss_rate::total      0.609080                       # miss rate for ReadReq accesses
system.l2cache.ReadReq_avg_miss_latency::.cpu.inst 67305.364512                       # average ReadReq miss latency
system.l2cache.ReadReq_avg_miss_latency::.cpu.data 65951.101322                       # average ReadReq miss latency
system.l2cache.ReadReq_avg_miss_latency::total 66189.375605                       # average ReadReq miss latency
system.l2cache.ReadReq_mshr_misses::.cpu.inst         1454                       # number of ReadReq MSHR misses
system.l2cache.ReadReq_mshr_misses::.cpu.data         6810                       # number of ReadReq MSHR misses
system.l2cache.ReadReq_mshr_misses::total         8264                       # number of ReadReq MSHR misses
system.l2cache.ReadReq_mshr_miss_latency::.cpu.inst     94954000                       # number of ReadReq MSHR miss cycles
system.l2cache.ReadReq_mshr_miss_latency::.cpu.data    435507000                       # number of ReadReq MSHR miss cycles
system.l2cache.ReadReq_mshr_miss_latency::total    530461000                       # number of ReadReq MSHR miss cycles
system.l2cache.ReadReq_mshr_miss_rate::.cpu.inst     0.892025                       # mshr miss rate for ReadReq accesses
system.l2cache.ReadReq_mshr_miss_rate::.cpu.data     0.570447                       # mshr miss rate for ReadReq accesses
system.l2cache.ReadReq_mshr_miss_rate::total     0.609080                       # mshr miss rate for ReadReq accesses
system.l2cache.ReadReq_avg_mshr_miss_latency::.cpu.inst 65305.364512                       # average ReadReq mshr miss latency
system.l2cache.ReadReq_avg_mshr_miss_latency::.cpu.data 63951.101322                       # average ReadReq mshr miss latency
system.l2cache.ReadReq_avg_mshr_miss_latency::total 64189.375605                       # average ReadReq mshr miss latency
system.l2cache.WritebackDirty_hits::.writebacks         8068                       # number of WritebackDirty hits
system.l2cache.WritebackDirty_hits::total         8068                       # number of WritebackDirty hits
system.l2cache.WritebackDirty_accesses::.writebacks         8068                       # number of WritebackDirty accesses(hits+misses)
system.l2cache.WritebackDirty_accesses::total         8068                       # number of WritebackDirty accesses(hits+misses)
system.l2cache.power_state.pwrStateResidencyTicks::UNDEFINED  17476438000                       # Cumulative time (in ticks) in various power states
system.l2cache.tags.tagsinuse              509.437279                       # Cycle average of tags in use
system.l2cache.tags.total_refs                  21636                       # Total number of references to valid blocks.
system.l2cache.tags.sampled_refs                11143                       # Sample count of references to valid blocks.
system.l2cache.tags.avg_refs                 1.941667                       # Average number of references to valid blocks.
system.l2cache.tags.warmup_cycle                76000                       # Cycle when the warmup percentage was hit.
system.l2cache.tags.occ_blocks::.writebacks    43.569006                       # Average occupied blocks per requestor
system.l2cache.tags.occ_blocks::.cpu.inst    19.417375                       # Average occupied blocks per requestor
system.l2cache.tags.occ_blocks::.cpu.data   446.450898                       # Average occupied blocks per requestor
system.l2cache.tags.occ_percent::.writebacks     0.085096                       # Average percentage of cache occupancy
system.l2cache.tags.occ_percent::.cpu.inst     0.037925                       # Average percentage of cache occupancy
system.l2cache.tags.occ_percent::.cpu.data     0.871974                       # Average percentage of cache occupancy
system.l2cache.tags.occ_percent::total       0.994995                       # Average percentage of cache occupancy
system.l2cache.tags.occ_task_id_blocks::1024          512                       # Occupied blocks per task id
system.l2cache.tags.age_task_id_blocks_1024::0            3                       # Occupied blocks per task id
system.l2cache.tags.age_task_id_blocks_1024::1           20                       # Occupied blocks per task id
system.l2cache.tags.age_task_id_blocks_1024::2          210                       # Occupied blocks per task id
system.l2cache.tags.age_task_id_blocks_1024::3          279                       # Occupied blocks per task id
system.l2cache.tags.occ_task_id_percent::1024            1                       # Percentage of cache occupancy per task id
system.l2cache.tags.tag_accesses                32779                       # Number of tag accesses
system.l2cache.tags.data_accesses               32779                       # Number of data accesses
system.l2cache.tags.power_state.pwrStateResidencyTicks::UNDEFINED  17476438000                       # Cumulative time (in ticks) in various power states
system.l2bar.trans_dist::ReadReq                13568                       # Transaction distribution
system.l2bar.trans_dist::ReadResp               13568                       # Transaction distribution
system.l2bar.trans_dist::WritebackDirty          8068                       # Transaction distribution
system.l2bar.pkt_count_system.dcache.mem_side::system.l2cache.cpu_side        31944                       # Packet count per connected master and slave (bytes)
system.l2bar.pkt_count_system.icache.mem_side::system.l2cache.cpu_side         3260                       # Packet count per connected master and slave (bytes)
system.l2bar.pkt_count::total                   35204                       # Packet count per connected master and slave (bytes)
system.l2bar.pkt_size_system.dcache.mem_side::system.l2cache.cpu_side      1280384                       # Cumulative packet size per connected master and slave (bytes)
system.l2bar.pkt_size_system.icache.mem_side::system.l2cache.cpu_side       104320                       # Cumulative packet size per connected master and slave (bytes)
system.l2bar.pkt_size::total                  1384704                       # Cumulative packet size per connected master and slave (bytes)
system.l2bar.respLayer1.occupancy             8150000                       # Layer occupancy (ticks)
system.l2bar.respLayer1.utilization               0.0                       # Layer utilization (%)
system.l2bar.reqLayer0.occupancy             53908000                       # Layer occupancy (ticks)
system.l2bar.reqLayer0.utilization                0.3                       # Layer utilization (%)
system.l2bar.respLayer0.occupancy            59690000                       # Layer occupancy (ticks)
system.l2bar.respLayer0.utilization               0.3                       # Layer utilization (%)
system.l2bar.power_state.pwrStateResidencyTicks::UNDEFINED  17476438000                       # Cumulative time (in ticks) in various power states
system.cpu.dtb.walker.power_state.pwrStateResidencyTicks::UNDEFINED  17476438000                       # Cumulative time (in ticks) in various power states
system.cpu.interrupts.clk_domain.clock          16000                       # Clock period in ticks
system.cpu.itb.walker.power_state.pwrStateResidencyTicks::UNDEFINED  17476438000                       # Cumulative time (in ticks) in various power states
system.cpu.power_state.numTransitions               1                       # Number of power state transitions
system.cpu.power_state.pwrStateResidencyTicks::ON  17476438000                       # Cumulative time (in ticks) in various power states

---------- End Simulation Statistics   ----------
