
---------- Begin Simulation Statistics ----------
final_tick                                 4497529000                       # Number of ticks from beginning of simulation (restored from checkpoints and never reset)
host_inst_rate                                 239306                       # Simulator instruction rate (inst/s)
host_mem_usage                                1320176                       # Number of bytes of host memory used
host_op_rate                                   518581                       # Simulator op (including micro ops) rate (op/s)
host_seconds                                     4.18                       # Real time elapsed on the host
host_tick_rate                             1075612166                       # Simulator tick rate (ticks/s)
sim_freq                                 1000000000000                       # Frequency of simulated ticks
sim_insts                                     1000572                       # Number of instructions simulated
sim_ops                                       2168357                       # Number of ops (including micro ops) simulated
sim_seconds                                  0.004498                       # Number of seconds simulated
sim_ticks                                  4497529000                       # Number of ticks simulated
system.cpu.Branches                            218218                       # Number of branches fetched
system.cpu.committedInsts                     1000572                       # Number of instructions committed
system.cpu.committedOps                       2168357                       # Number of ops (including micro ops) committed
system.cpu.dtb.rdAccesses                      263628                       # TLB accesses on read requests
system.cpu.dtb.rdMisses                            91                       # TLB misses on read requests
system.cpu.dtb.wrAccesses                      105300                       # TLB accesses on write requests
system.cpu.dtb.wrMisses                           113                       # TLB misses on write requests
system.cpu.idle_fraction                            0                       # Percentage of idle cycles
system.cpu.itb.rdAccesses                           0                       # TLB accesses on read requests
system.cpu.itb.rdMisses                             0                       # TLB misses on read requests
system.cpu.itb.wrAccesses                     1344096                       # TLB accesses on write requests
system.cpu.itb.wrMisses                           259                       # TLB misses on write requests
system.cpu.not_idle_fraction                        1                       # Percentage of non-idle cycles
system.cpu.numCycles                          4497520                       # number of cpu cycles simulated
system.cpu.numWorkItemsCompleted                    0                       # number of work items this cpu completed
system.cpu.numWorkItemsStarted                      0                       # number of work items this cpu started
system.cpu.num_busy_cycles                    4497520                       # Number of busy cycles
system.cpu.num_cc_register_reads              1375654                       # number of times the CC registers were read
system.cpu.num_cc_register_writes              547120                       # number of times the CC registers were written
system.cpu.num_conditional_control_insts       158007                       # number of instructions that are conditional controls
system.cpu.num_fp_alu_accesses                 364154                       # Number of float alu accesses
system.cpu.num_fp_insts                        364154                       # number of float instructions
system.cpu.num_fp_register_reads               651319                       # number of times the floating registers were read
system.cpu.num_fp_register_writes              332631                       # number of times the floating registers were written
system.cpu.num_func_calls                       31959                       # number of times a function call or return occured
system.cpu.num_idle_cycles                          0                       # Number of idle cycles
system.cpu.num_int_alu_accesses               1874480                       # Number of integer alu accesses
system.cpu.num_int_insts                      1874480                       # number of integer instructions
system.cpu.num_int_register_reads             3617813                       # number of times the integer registers were read
system.cpu.num_int_register_writes            1494599                       # number of times the integer registers were written
system.cpu.num_load_insts                      263554                       # Number of load instructions
system.cpu.num_mem_refs                        368839                       # number of memory refs
system.cpu.num_store_insts                     105285                       # Number of store instructions
system.cpu.num_vec_alu_accesses                     0                       # Number of vector alu accesses
system.cpu.num_vec_insts                            0                       # number of vector instructions
system.cpu.num_vec_register_reads                   0                       # number of times the vector registers were read
system.cpu.num_vec_register_writes                  0                       # number of times the vector registers were written
system.cpu.op_class::No_OpClass                 30500      1.41%      1.41% # Class of executed instruction
system.cpu.op_class::IntAlu                   1545752     71.29%     72.69% # Class of executed instruction
system.cpu.op_class::IntMult                     1467      0.07%     72.76% # Class of executed instruction
system.cpu.op_class::IntDiv                       666      0.03%     72.79% # Class of executed instruction
system.cpu.op_class::FloatAdd                    1288      0.06%     72.85% # Class of executed instruction
system.cpu.op_class::FloatCmp                       0      0.00%     72.85% # Class of executed instruction
system.cpu.op_class::FloatCvt                       0      0.00%     72.85% # Class of executed instruction
system.cpu.op_class::FloatMult                      0      0.00%     72.85% # Class of executed instruction
system.cpu.op_class::FloatMultAcc                   0      0.00%     72.85% # Class of executed instruction
system.cpu.op_class::FloatDiv                       0      0.00%     72.85% # Class of executed instruction
system.cpu.op_class::FloatMisc                      0      0.00%     72.85% # Class of executed instruction
system.cpu.op_class::FloatSqrt                      0      0.00%     72.85% # Class of executed instruction
system.cpu.op_class::SimdAdd                    13858      0.64%     73.49% # Class of executed instruction
system.cpu.op_class::SimdAddAcc                     0      0.00%     73.49% # Class of executed instruction
system.cpu.op_class::SimdAlu                   100054      4.61%     78.10% # Class of executed instruction
system.cpu.op_class::SimdCmp                       24      0.00%     78.10% # Class of executed instruction
system.cpu.op_class::SimdCvt                    84308      3.89%     81.99% # Class of executed instruction
system.cpu.op_class::SimdMisc                   17836      0.82%     82.81% # Class of executed instruction
system.cpu.op_class::SimdMult                       0      0.00%     82.81% # Class of executed instruction
system.cpu.op_class::SimdMultAcc                    0      0.00%     82.81% # Class of executed instruction
system.cpu.op_class::SimdShift                   3064      0.14%     82.96% # Class of executed instruction
system.cpu.op_class::SimdShiftAcc                   0      0.00%     82.96% # Class of executed instruction
system.cpu.op_class::SimdDiv                        0      0.00%     82.96% # Class of executed instruction
system.cpu.op_class::SimdSqrt                       0      0.00%     82.96% # Class of executed instruction
system.cpu.op_class::SimdFloatAdd                  97      0.00%     82.96% # Class of executed instruction
system.cpu.op_class::SimdFloatAlu                   0      0.00%     82.96% # Class of executed instruction
system.cpu.op_class::SimdFloatCmp                   0      0.00%     82.96% # Class of executed instruction
system.cpu.op_class::SimdFloatCvt                 499      0.02%     82.98% # Class of executed instruction
system.cpu.op_class::SimdFloatDiv                  85      0.00%     82.99% # Class of executed instruction
system.cpu.op_class::SimdFloatMisc                  0      0.00%     82.99% # Class of executed instruction
system.cpu.op_class::SimdFloatMult                 65      0.00%     82.99% # Class of executed instruction
system.cpu.op_class::SimdFloatMultAcc               0      0.00%     82.99% # Class of executed instruction
system.cpu.op_class::SimdFloatSqrt                  0      0.00%     82.99% # Class of executed instruction
system.cpu.op_class::SimdReduceAdd                  0      0.00%     82.99% # Class of executed instruction
system.cpu.op_class::SimdReduceAlu                  0      0.00%     82.99% # Class of executed instruction
system.cpu.op_class::SimdReduceCmp                  0      0.00%     82.99% # Class of executed instruction
system.cpu.op_class::SimdFloatReduceAdd             0      0.00%     82.99% # Class of executed instruction
system.cpu.op_class::SimdFloatReduceCmp             0      0.00%     82.99% # Class of executed instruction
system.cpu.op_class::SimdAes                        0      0.00%     82.99% # Class of executed instruction
system.cpu.op_class::SimdAesMix                     0      0.00%     82.99% # Class of executed instruction
system.cpu.op_class::SimdSha1Hash                   0      0.00%     82.99% # Class of executed instruction
system.cpu.op_class::SimdSha1Hash2                  0      0.00%     82.99% # Class of executed instruction
system.cpu.op_class::SimdSha256Hash                 0      0.00%     82.99% # Class of executed instruction
system.cpu.op_class::SimdSha256Hash2                0      0.00%     82.99% # Class of executed instruction
system.cpu.op_class::SimdShaSigma2                  0      0.00%     82.99% # Class of executed instruction
system.cpu.op_class::SimdShaSigma3                  0      0.00%     82.99% # Class of executed instruction
system.cpu.op_class::SimdPredAlu                    0      0.00%     82.99% # Class of executed instruction
system.cpu.op_class::MemRead                   193080      8.90%     91.89% # Class of executed instruction
system.cpu.op_class::MemWrite                   88855      4.10%     95.99% # Class of executed instruction
system.cpu.op_class::FloatMemRead               70474      3.25%     99.24% # Class of executed instruction
system.cpu.op_class::FloatMemWrite              16430      0.76%    100.00% # Class of executed instruction
system.cpu.op_class::IprAccess                      0      0.00%    100.00% # Class of executed instruction
system.cpu.op_class::InstPrefetch                   0      0.00%    100.00% # Class of executed instruction
system.cpu.op_class::total                    2168402                       # Class of executed instruction
system.cpu.workload.numSyscalls                    43                       # Number of system calls
system.dynamic_cache.flushTicks                     0                       # Ticks taken to flush
system.dynamic_cache.numFlushes                     0                       # Number of Flushes Taken
system.cache_small.blocked_cycles::no_mshrs            0                       # number of cycles access was blocked
system.cache_small.blocked_cycles::no_targets            0                       # number of cycles access was blocked
system.cache_small.blocked::no_mshrs                0                       # number of cycles access was blocked
system.cache_small.blocked::no_targets              0                       # number of cycles access was blocked
system.cache_small.avg_blocked_cycles::no_mshrs          nan                       # average number of cycles each access was blocked
system.cache_small.avg_blocked_cycles::no_targets          nan                       # average number of cycles each access was blocked
system.cache_small.replacements                     0                       # number of replacements
system.cache_small.power_state.pwrStateResidencyTicks::UNDEFINED   4497529000                       # Cumulative time (in ticks) in various power states
system.cache_small.tags.tagsinuse                   0                       # Cycle average of tags in use
system.cache_small.tags.total_refs                  0                       # Total number of references to valid blocks.
system.cache_small.tags.sampled_refs                0                       # Sample count of references to valid blocks.
system.cache_small.tags.avg_refs                  nan                       # Average number of references to valid blocks.
system.cache_small.tags.warmup_cycle                0                       # Cycle when the warmup percentage was hit.
system.cache_small.tags.tag_accesses                0                       # Number of tag accesses
system.cache_small.tags.data_accesses               0                       # Number of data accesses
system.cache_small.tags.power_state.pwrStateResidencyTicks::UNDEFINED   4497529000                       # Cumulative time (in ticks) in various power states
system.icache.demand_hits::.cpu.inst          1337776                       # number of demand (read+write) hits
system.icache.demand_hits::total              1337776                       # number of demand (read+write) hits
system.icache.overall_hits::.cpu.inst         1337776                       # number of overall hits
system.icache.overall_hits::total             1337776                       # number of overall hits
system.icache.demand_misses::.cpu.inst           6320                       # number of demand (read+write) misses
system.icache.demand_misses::total               6320                       # number of demand (read+write) misses
system.icache.overall_misses::.cpu.inst          6320                       # number of overall misses
system.icache.overall_misses::total              6320                       # number of overall misses
system.icache.demand_miss_latency::.cpu.inst    383283000                       # number of demand (read+write) miss cycles
system.icache.demand_miss_latency::total    383283000                       # number of demand (read+write) miss cycles
system.icache.overall_miss_latency::.cpu.inst    383283000                       # number of overall miss cycles
system.icache.overall_miss_latency::total    383283000                       # number of overall miss cycles
system.icache.demand_accesses::.cpu.inst      1344096                       # number of demand (read+write) accesses
system.icache.demand_accesses::total          1344096                       # number of demand (read+write) accesses
system.icache.overall_accesses::.cpu.inst      1344096                       # number of overall (read+write) accesses
system.icache.overall_accesses::total         1344096                       # number of overall (read+write) accesses
system.icache.demand_miss_rate::.cpu.inst     0.004702                       # miss rate for demand accesses
system.icache.demand_miss_rate::total        0.004702                       # miss rate for demand accesses
system.icache.overall_miss_rate::.cpu.inst     0.004702                       # miss rate for overall accesses
system.icache.overall_miss_rate::total       0.004702                       # miss rate for overall accesses
system.icache.demand_avg_miss_latency::.cpu.inst 60646.044304                       # average overall miss latency
system.icache.demand_avg_miss_latency::total 60646.044304                       # average overall miss latency
system.icache.overall_avg_miss_latency::.cpu.inst 60646.044304                       # average overall miss latency
system.icache.overall_avg_miss_latency::total 60646.044304                       # average overall miss latency
system.icache.blocked_cycles::no_mshrs              0                       # number of cycles access was blocked
system.icache.blocked_cycles::no_targets            0                       # number of cycles access was blocked
system.icache.blocked::no_mshrs                     0                       # number of cycles access was blocked
system.icache.blocked::no_targets                   0                       # number of cycles access was blocked
system.icache.avg_blocked_cycles::no_mshrs          nan                       # average number of cycles each access was blocked
system.icache.avg_blocked_cycles::no_targets          nan                       # average number of cycles each access was blocked
system.icache.demand_mshr_misses::.cpu.inst         6320                       # number of demand (read+write) MSHR misses
system.icache.demand_mshr_misses::total          6320                       # number of demand (read+write) MSHR misses
system.icache.overall_mshr_misses::.cpu.inst         6320                       # number of overall MSHR misses
system.icache.overall_mshr_misses::total         6320                       # number of overall MSHR misses
system.icache.demand_mshr_miss_latency::.cpu.inst    370643000                       # number of demand (read+write) MSHR miss cycles
system.icache.demand_mshr_miss_latency::total    370643000                       # number of demand (read+write) MSHR miss cycles
system.icache.overall_mshr_miss_latency::.cpu.inst    370643000                       # number of overall MSHR miss cycles
system.icache.overall_mshr_miss_latency::total    370643000                       # number of overall MSHR miss cycles
system.icache.demand_mshr_miss_rate::.cpu.inst     0.004702                       # mshr miss rate for demand accesses
system.icache.demand_mshr_miss_rate::total     0.004702                       # mshr miss rate for demand accesses
system.icache.overall_mshr_miss_rate::.cpu.inst     0.004702                       # mshr miss rate for overall accesses
system.icache.overall_mshr_miss_rate::total     0.004702                       # mshr miss rate for overall accesses
system.icache.demand_avg_mshr_miss_latency::.cpu.inst 58646.044304                       # average overall mshr miss latency
system.icache.demand_avg_mshr_miss_latency::total 58646.044304                       # average overall mshr miss latency
system.icache.overall_avg_mshr_miss_latency::.cpu.inst 58646.044304                       # average overall mshr miss latency
system.icache.overall_avg_mshr_miss_latency::total 58646.044304                       # average overall mshr miss latency
system.icache.replacements                       6064                       # number of replacements
system.icache.ReadReq_hits::.cpu.inst         1337776                       # number of ReadReq hits
system.icache.ReadReq_hits::total             1337776                       # number of ReadReq hits
system.icache.ReadReq_misses::.cpu.inst          6320                       # number of ReadReq misses
system.icache.ReadReq_misses::total              6320                       # number of ReadReq misses
system.icache.ReadReq_miss_latency::.cpu.inst    383283000                       # number of ReadReq miss cycles
system.icache.ReadReq_miss_latency::total    383283000                       # number of ReadReq miss cycles
system.icache.ReadReq_accesses::.cpu.inst      1344096                       # number of ReadReq accesses(hits+misses)
system.icache.ReadReq_accesses::total         1344096                       # number of ReadReq accesses(hits+misses)
system.icache.ReadReq_miss_rate::.cpu.inst     0.004702                       # miss rate for ReadReq accesses
system.icache.ReadReq_miss_rate::total       0.004702                       # miss rate for ReadReq accesses
system.icache.ReadReq_avg_miss_latency::.cpu.inst 60646.044304                       # average ReadReq miss latency
system.icache.ReadReq_avg_miss_latency::total 60646.044304                       # average ReadReq miss latency
system.icache.ReadReq_mshr_misses::.cpu.inst         6320                       # number of ReadReq MSHR misses
system.icache.ReadReq_mshr_misses::total         6320                       # number of ReadReq MSHR misses
system.icache.ReadReq_mshr_miss_latency::.cpu.inst    370643000                       # number of ReadReq MSHR miss cycles
system.icache.ReadReq_mshr_miss_latency::total    370643000                       # number of ReadReq MSHR miss cycles
system.icache.ReadReq_mshr_miss_rate::.cpu.inst     0.004702                       # mshr miss rate for ReadReq accesses
system.icache.ReadReq_mshr_miss_rate::total     0.004702                       # mshr miss rate for ReadReq accesses
system.icache.ReadReq_avg_mshr_miss_latency::.cpu.inst 58646.044304                       # average ReadReq mshr miss latency
system.icache.ReadReq_avg_mshr_miss_latency::total 58646.044304                       # average ReadReq mshr miss latency
system.icache.power_state.pwrStateResidencyTicks::UNDEFINED   4497529000                       # Cumulative time (in ticks) in various power states
system.icache.tags.tagsinuse               250.448552                       # Cycle average of tags in use
system.icache.tags.total_refs                  927951                       # Total number of references to valid blocks.
system.icache.tags.sampled_refs                  6064                       # Sample count of references to valid blocks.
system.icache.tags.avg_refs                153.026220                       # Average number of references to valid blocks.
system.icache.tags.warmup_cycle                 80000                       # Cycle when the warmup percentage was hit.
system.icache.tags.occ_blocks::.cpu.inst   250.448552                       # Average occupied blocks per requestor
system.icache.tags.occ_percent::.cpu.inst     0.978315                       # Average percentage of cache occupancy
system.icache.tags.occ_percent::total        0.978315                       # Average percentage of cache occupancy
system.icache.tags.occ_task_id_blocks::1024          256                       # Occupied blocks per task id
system.icache.tags.age_task_id_blocks_1024::2          102                       # Occupied blocks per task id
system.icache.tags.age_task_id_blocks_1024::3          154                       # Occupied blocks per task id
system.icache.tags.occ_task_id_percent::1024            1                       # Percentage of cache occupancy per task id
system.icache.tags.tag_accesses               1350416                       # Number of tag accesses
system.icache.tags.data_accesses              1350416                       # Number of data accesses
system.icache.tags.power_state.pwrStateResidencyTicks::UNDEFINED   4497529000                       # Cumulative time (in ticks) in various power states
system.membus.trans_dist::ReadReq               12695                       # Transaction distribution
system.membus.trans_dist::ReadResp              12695                       # Transaction distribution
system.membus.trans_dist::WritebackDirty         3393                       # Transaction distribution
system.membus.pkt_count_system.dynamic_cache.mem_side::system.mem_ctrl.port        28783                       # Packet count per connected master and slave (bytes)
system.membus.pkt_count_system.dynamic_cache.mem_side::total        28783                       # Packet count per connected master and slave (bytes)
system.membus.pkt_count::total                  28783                       # Packet count per connected master and slave (bytes)
system.membus.pkt_size_system.dynamic_cache.mem_side::system.mem_ctrl.port      1029632                       # Cumulative packet size per connected master and slave (bytes)
system.membus.pkt_size_system.dynamic_cache.mem_side::total      1029632                       # Cumulative packet size per connected master and slave (bytes)
system.membus.pkt_size::total                 1029632                       # Cumulative packet size per connected master and slave (bytes)
system.membus.reqLayer2.occupancy            29660000                       # Layer occupancy (ticks)
system.membus.reqLayer2.utilization               0.7                       # Layer utilization (%)
system.membus.respLayer0.occupancy           67863500                       # Layer occupancy (ticks)
system.membus.respLayer0.utilization              1.5                       # Layer utilization (%)
system.membus.power_state.pwrStateResidencyTicks::UNDEFINED   4497529000                       # Cumulative time (in ticks) in various power states
system.mem_ctrl.bytes_read::.cpu.inst          298624                       # Number of bytes read from this memory
system.mem_ctrl.bytes_read::.cpu.data          513856                       # Number of bytes read from this memory
system.mem_ctrl.bytes_read::total              812480                       # Number of bytes read from this memory
system.mem_ctrl.bytes_inst_read::.cpu.inst       298624                       # Number of instructions bytes read from this memory
system.mem_ctrl.bytes_inst_read::total         298624                       # Number of instructions bytes read from this memory
system.mem_ctrl.bytes_written::.writebacks       217152                       # Number of bytes written to this memory
system.mem_ctrl.bytes_written::total           217152                       # Number of bytes written to this memory
system.mem_ctrl.num_reads::.cpu.inst             4666                       # Number of read requests responded to by this memory
system.mem_ctrl.num_reads::.cpu.data             8029                       # Number of read requests responded to by this memory
system.mem_ctrl.num_reads::total                12695                       # Number of read requests responded to by this memory
system.mem_ctrl.num_writes::.writebacks          3393                       # Number of write requests responded to by this memory
system.mem_ctrl.num_writes::total                3393                       # Number of write requests responded to by this memory
system.mem_ctrl.bw_read::.cpu.inst           66397348                       # Total read bandwidth from this memory (bytes/s)
system.mem_ctrl.bw_read::.cpu.data          114252960                       # Total read bandwidth from this memory (bytes/s)
system.mem_ctrl.bw_read::total              180650308                       # Total read bandwidth from this memory (bytes/s)
system.mem_ctrl.bw_inst_read::.cpu.inst      66397348                       # Instruction read bandwidth from this memory (bytes/s)
system.mem_ctrl.bw_inst_read::total          66397348                       # Instruction read bandwidth from this memory (bytes/s)
system.mem_ctrl.bw_write::.writebacks        48282512                       # Write bandwidth from this memory (bytes/s)
system.mem_ctrl.bw_write::total              48282512                       # Write bandwidth from this memory (bytes/s)
system.mem_ctrl.bw_total::.writebacks        48282512                       # Total bandwidth to/from this memory (bytes/s)
system.mem_ctrl.bw_total::.cpu.inst          66397348                       # Total bandwidth to/from this memory (bytes/s)
system.mem_ctrl.bw_total::.cpu.data         114252960                       # Total bandwidth to/from this memory (bytes/s)
system.mem_ctrl.bw_total::total             228932821                       # Total bandwidth to/from this memory (bytes/s)
system.mem_ctrl.avgPriority_.writebacks::samples      2978.00                       # Average QoS priority value for accepted requests
system.mem_ctrl.avgPriority_.cpu.inst::samples      4666.00                       # Average QoS priority value for accepted requests
system.mem_ctrl.avgPriority_.cpu.data::samples      7776.00                       # Average QoS priority value for accepted requests
system.mem_ctrl.priorityMinLatency       0.000000018750                       # per QoS priority minimum request to response latency (s)
system.mem_ctrl.priorityMaxLatency       0.002542302750                       # per QoS priority maximum request to response latency (s)
system.mem_ctrl.numReadWriteTurnArounds           175                       # Number of turnarounds from READ to WRITE
system.mem_ctrl.numWriteReadTurnArounds           175                       # Number of turnarounds from WRITE to READ
system.mem_ctrl.numStayReadState                29304                       # Number of times bus staying in READ state
system.mem_ctrl.numStayWriteState                2780                       # Number of times bus staying in WRITE state
system.mem_ctrl.readReqs                        12695                       # Number of read requests accepted
system.mem_ctrl.writeReqs                        3393                       # Number of write requests accepted
system.mem_ctrl.readBursts                      12695                       # Number of DRAM read bursts, including those serviced by the write queue
system.mem_ctrl.writeBursts                      3393                       # Number of DRAM write bursts, including those merged in the write queue
system.mem_ctrl.servicedByWrQ                     253                       # Number of DRAM read bursts serviced by the write queue
system.mem_ctrl.mergedWrBursts                    415                       # Number of DRAM write bursts merged with an existing one
system.mem_ctrl.neitherReadNorWriteReqs             0                       # Number of requests that are neither read nor write
system.mem_ctrl.perBankRdBursts::0                435                       # Per bank write bursts
system.mem_ctrl.perBankRdBursts::1                428                       # Per bank write bursts
system.mem_ctrl.perBankRdBursts::2                614                       # Per bank write bursts
system.mem_ctrl.perBankRdBursts::3                825                       # Per bank write bursts
system.mem_ctrl.perBankRdBursts::4                392                       # Per bank write bursts
system.mem_ctrl.perBankRdBursts::5               1623                       # Per bank write bursts
system.mem_ctrl.perBankRdBursts::6                940                       # Per bank write bursts
system.mem_ctrl.perBankRdBursts::7                661                       # Per bank write bursts
system.mem_ctrl.perBankRdBursts::8                497                       # Per bank write bursts
system.mem_ctrl.perBankRdBursts::9               1522                       # Per bank write bursts
system.mem_ctrl.perBankRdBursts::10              1293                       # Per bank write bursts
system.mem_ctrl.perBankRdBursts::11               620                       # Per bank write bursts
system.mem_ctrl.perBankRdBursts::12               502                       # Per bank write bursts
system.mem_ctrl.perBankRdBursts::13               532                       # Per bank write bursts
system.mem_ctrl.perBankRdBursts::14               877                       # Per bank write bursts
system.mem_ctrl.perBankRdBursts::15               681                       # Per bank write bursts
system.mem_ctrl.perBankWrBursts::0                169                       # Per bank write bursts
system.mem_ctrl.perBankWrBursts::1                185                       # Per bank write bursts
system.mem_ctrl.perBankWrBursts::2                128                       # Per bank write bursts
system.mem_ctrl.perBankWrBursts::3                137                       # Per bank write bursts
system.mem_ctrl.perBankWrBursts::4                138                       # Per bank write bursts
system.mem_ctrl.perBankWrBursts::5                182                       # Per bank write bursts
system.mem_ctrl.perBankWrBursts::6                256                       # Per bank write bursts
system.mem_ctrl.perBankWrBursts::7                 32                       # Per bank write bursts
system.mem_ctrl.perBankWrBursts::8                 94                       # Per bank write bursts
system.mem_ctrl.perBankWrBursts::9                104                       # Per bank write bursts
system.mem_ctrl.perBankWrBursts::10               275                       # Per bank write bursts
system.mem_ctrl.perBankWrBursts::11               375                       # Per bank write bursts
system.mem_ctrl.perBankWrBursts::12               208                       # Per bank write bursts
system.mem_ctrl.perBankWrBursts::13               104                       # Per bank write bursts
system.mem_ctrl.perBankWrBursts::14               289                       # Per bank write bursts
system.mem_ctrl.perBankWrBursts::15               275                       # Per bank write bursts
system.mem_ctrl.avgRdQLen                        1.00                       # Average read queue length when enqueuing
system.mem_ctrl.avgWrQLen                       23.50                       # Average write queue length when enqueuing
system.mem_ctrl.totQLat                     125774000                       # Total ticks spent queuing
system.mem_ctrl.totBusLat                    62210000                       # Total ticks spent in databus transfers
system.mem_ctrl.totMemAccLat                359061500                       # Total ticks spent from burst creation until serviced by the DRAM
system.mem_ctrl.avgQLat                      10108.82                       # Average queueing delay per DRAM burst
system.mem_ctrl.avgBusLat                     5000.00                       # Average bus latency per DRAM burst
system.mem_ctrl.avgMemAccLat                 28858.82                       # Average memory access latency per DRAM burst
system.mem_ctrl.numRdRetry                          0                       # Number of times read queue was full causing retry
system.mem_ctrl.numWrRetry                          0                       # Number of times write queue was full causing retry
system.mem_ctrl.readRowHits                      8554                       # Number of row buffer hits during reads
system.mem_ctrl.writeRowHits                     2370                       # Number of row buffer hits during writes
system.mem_ctrl.readRowHitRate                  68.75                       # Row buffer hit rate for reads
system.mem_ctrl.writeRowHitRate                 79.58                       # Row buffer hit rate for writes
system.mem_ctrl.readPktSize::0                      0                       # Read request sizes (log2)
system.mem_ctrl.readPktSize::1                      0                       # Read request sizes (log2)
system.mem_ctrl.readPktSize::2                      0                       # Read request sizes (log2)
system.mem_ctrl.readPktSize::3                      0                       # Read request sizes (log2)
system.mem_ctrl.readPktSize::4                      0                       # Read request sizes (log2)
system.mem_ctrl.readPktSize::5                      0                       # Read request sizes (log2)
system.mem_ctrl.readPktSize::6                  12695                       # Read request sizes (log2)
system.mem_ctrl.writePktSize::0                     0                       # Write request sizes (log2)
system.mem_ctrl.writePktSize::1                     0                       # Write request sizes (log2)
system.mem_ctrl.writePktSize::2                     0                       # Write request sizes (log2)
system.mem_ctrl.writePktSize::3                     0                       # Write request sizes (log2)
system.mem_ctrl.writePktSize::4                     0                       # Write request sizes (log2)
system.mem_ctrl.writePktSize::5                     0                       # Write request sizes (log2)
system.mem_ctrl.writePktSize::6                  3393                       # Write request sizes (log2)
system.mem_ctrl.rdQLenPdf::0                    12438                       # What read queue length does an incoming req see
system.mem_ctrl.rdQLenPdf::1                        4                       # What read queue length does an incoming req see
system.mem_ctrl.rdQLenPdf::2                        0                       # What read queue length does an incoming req see
system.mem_ctrl.rdQLenPdf::3                        0                       # What read queue length does an incoming req see
system.mem_ctrl.rdQLenPdf::4                        0                       # What read queue length does an incoming req see
system.mem_ctrl.rdQLenPdf::5                        0                       # What read queue length does an incoming req see
system.mem_ctrl.rdQLenPdf::6                        0                       # What read queue length does an incoming req see
system.mem_ctrl.rdQLenPdf::7                        0                       # What read queue length does an incoming req see
system.mem_ctrl.rdQLenPdf::8                        0                       # What read queue length does an incoming req see
system.mem_ctrl.rdQLenPdf::9                        0                       # What read queue length does an incoming req see
system.mem_ctrl.rdQLenPdf::10                       0                       # What read queue length does an incoming req see
system.mem_ctrl.rdQLenPdf::11                       0                       # What read queue length does an incoming req see
system.mem_ctrl.rdQLenPdf::12                       0                       # What read queue length does an incoming req see
system.mem_ctrl.rdQLenPdf::13                       0                       # What read queue length does an incoming req see
system.mem_ctrl.rdQLenPdf::14                       0                       # What read queue length does an incoming req see
system.mem_ctrl.rdQLenPdf::15                       0                       # What read queue length does an incoming req see
system.mem_ctrl.rdQLenPdf::16                       0                       # What read queue length does an incoming req see
system.mem_ctrl.rdQLenPdf::17                       0                       # What read queue length does an incoming req see
system.mem_ctrl.rdQLenPdf::18                       0                       # What read queue length does an incoming req see
system.mem_ctrl.rdQLenPdf::19                       0                       # What read queue length does an incoming req see
system.mem_ctrl.rdQLenPdf::20                       0                       # What read queue length does an incoming req see
system.mem_ctrl.rdQLenPdf::21                       0                       # What read queue length does an incoming req see
system.mem_ctrl.rdQLenPdf::22                       0                       # What read queue length does an incoming req see
system.mem_ctrl.rdQLenPdf::23                       0                       # What read queue length does an incoming req see
system.mem_ctrl.rdQLenPdf::24                       0                       # What read queue length does an incoming req see
system.mem_ctrl.rdQLenPdf::25                       0                       # What read queue length does an incoming req see
system.mem_ctrl.rdQLenPdf::26                       0                       # What read queue length does an incoming req see
system.mem_ctrl.rdQLenPdf::27                       0                       # What read queue length does an incoming req see
system.mem_ctrl.rdQLenPdf::28                       0                       # What read queue length does an incoming req see
system.mem_ctrl.rdQLenPdf::29                       0                       # What read queue length does an incoming req see
system.mem_ctrl.rdQLenPdf::30                       0                       # What read queue length does an incoming req see
system.mem_ctrl.rdQLenPdf::31                       0                       # What read queue length does an incoming req see
system.mem_ctrl.wrQLenPdf::0                        1                       # What write queue length does an incoming req see
system.mem_ctrl.wrQLenPdf::1                        1                       # What write queue length does an incoming req see
system.mem_ctrl.wrQLenPdf::2                        1                       # What write queue length does an incoming req see
system.mem_ctrl.wrQLenPdf::3                        1                       # What write queue length does an incoming req see
system.mem_ctrl.wrQLenPdf::4                        1                       # What write queue length does an incoming req see
system.mem_ctrl.wrQLenPdf::5                        1                       # What write queue length does an incoming req see
system.mem_ctrl.wrQLenPdf::6                        1                       # What write queue length does an incoming req see
system.mem_ctrl.wrQLenPdf::7                        1                       # What write queue length does an incoming req see
system.mem_ctrl.wrQLenPdf::8                        1                       # What write queue length does an incoming req see
system.mem_ctrl.wrQLenPdf::9                        1                       # What write queue length does an incoming req see
system.mem_ctrl.wrQLenPdf::10                       1                       # What write queue length does an incoming req see
system.mem_ctrl.wrQLenPdf::11                       1                       # What write queue length does an incoming req see
system.mem_ctrl.wrQLenPdf::12                       1                       # What write queue length does an incoming req see
system.mem_ctrl.wrQLenPdf::13                       1                       # What write queue length does an incoming req see
system.mem_ctrl.wrQLenPdf::14                       1                       # What write queue length does an incoming req see
system.mem_ctrl.wrQLenPdf::15                      69                       # What write queue length does an incoming req see
system.mem_ctrl.wrQLenPdf::16                      79                       # What write queue length does an incoming req see
system.mem_ctrl.wrQLenPdf::17                     175                       # What write queue length does an incoming req see
system.mem_ctrl.wrQLenPdf::18                     176                       # What write queue length does an incoming req see
system.mem_ctrl.wrQLenPdf::19                     177                       # What write queue length does an incoming req see
system.mem_ctrl.wrQLenPdf::20                     176                       # What write queue length does an incoming req see
system.mem_ctrl.wrQLenPdf::21                     176                       # What write queue length does an incoming req see
system.mem_ctrl.wrQLenPdf::22                     177                       # What write queue length does an incoming req see
system.mem_ctrl.wrQLenPdf::23                     176                       # What write queue length does an incoming req see
system.mem_ctrl.wrQLenPdf::24                     178                       # What write queue length does an incoming req see
system.mem_ctrl.wrQLenPdf::25                     176                       # What write queue length does an incoming req see
system.mem_ctrl.wrQLenPdf::26                     176                       # What write queue length does an incoming req see
system.mem_ctrl.wrQLenPdf::27                     177                       # What write queue length does an incoming req see
system.mem_ctrl.wrQLenPdf::28                     175                       # What write queue length does an incoming req see
system.mem_ctrl.wrQLenPdf::29                     175                       # What write queue length does an incoming req see
system.mem_ctrl.wrQLenPdf::30                     175                       # What write queue length does an incoming req see
system.mem_ctrl.wrQLenPdf::31                     175                       # What write queue length does an incoming req see
system.mem_ctrl.wrQLenPdf::32                     175                       # What write queue length does an incoming req see
system.mem_ctrl.wrQLenPdf::33                       0                       # What write queue length does an incoming req see
system.mem_ctrl.wrQLenPdf::34                       0                       # What write queue length does an incoming req see
system.mem_ctrl.wrQLenPdf::35                       0                       # What write queue length does an incoming req see
system.mem_ctrl.wrQLenPdf::36                       0                       # What write queue length does an incoming req see
system.mem_ctrl.wrQLenPdf::37                       0                       # What write queue length does an incoming req see
system.mem_ctrl.wrQLenPdf::38                       0                       # What write queue length does an incoming req see
system.mem_ctrl.wrQLenPdf::39                       0                       # What write queue length does an incoming req see
system.mem_ctrl.wrQLenPdf::40                       0                       # What write queue length does an incoming req see
system.mem_ctrl.wrQLenPdf::41                       0                       # What write queue length does an incoming req see
system.mem_ctrl.wrQLenPdf::42                       0                       # What write queue length does an incoming req see
system.mem_ctrl.wrQLenPdf::43                       0                       # What write queue length does an incoming req see
system.mem_ctrl.wrQLenPdf::44                       0                       # What write queue length does an incoming req see
system.mem_ctrl.wrQLenPdf::45                       0                       # What write queue length does an incoming req see
system.mem_ctrl.wrQLenPdf::46                       0                       # What write queue length does an incoming req see
system.mem_ctrl.wrQLenPdf::47                       0                       # What write queue length does an incoming req see
system.mem_ctrl.wrQLenPdf::48                       0                       # What write queue length does an incoming req see
system.mem_ctrl.wrQLenPdf::49                       0                       # What write queue length does an incoming req see
system.mem_ctrl.wrQLenPdf::50                       0                       # What write queue length does an incoming req see
system.mem_ctrl.wrQLenPdf::51                       0                       # What write queue length does an incoming req see
system.mem_ctrl.wrQLenPdf::52                       0                       # What write queue length does an incoming req see
system.mem_ctrl.wrQLenPdf::53                       0                       # What write queue length does an incoming req see
system.mem_ctrl.wrQLenPdf::54                       0                       # What write queue length does an incoming req see
system.mem_ctrl.wrQLenPdf::55                       0                       # What write queue length does an incoming req see
system.mem_ctrl.wrQLenPdf::56                       0                       # What write queue length does an incoming req see
system.mem_ctrl.wrQLenPdf::57                       0                       # What write queue length does an incoming req see
system.mem_ctrl.wrQLenPdf::58                       0                       # What write queue length does an incoming req see
system.mem_ctrl.wrQLenPdf::59                       0                       # What write queue length does an incoming req see
system.mem_ctrl.wrQLenPdf::60                       0                       # What write queue length does an incoming req see
system.mem_ctrl.wrQLenPdf::61                       0                       # What write queue length does an incoming req see
system.mem_ctrl.wrQLenPdf::62                       0                       # What write queue length does an incoming req see
system.mem_ctrl.wrQLenPdf::63                       0                       # What write queue length does an incoming req see
system.mem_ctrl.bytesPerActivate::samples         4469                       # Bytes accessed per row activation
system.mem_ctrl.bytesPerActivate::mean     220.441262                       # Bytes accessed per row activation
system.mem_ctrl.bytesPerActivate::gmean    146.191837                       # Bytes accessed per row activation
system.mem_ctrl.bytesPerActivate::stdev    237.894063                       # Bytes accessed per row activation
system.mem_ctrl.bytesPerActivate::0-127          1798     40.23%     40.23% # Bytes accessed per row activation
system.mem_ctrl.bytesPerActivate::128-255         1337     29.92%     70.15% # Bytes accessed per row activation
system.mem_ctrl.bytesPerActivate::256-383          590     13.20%     83.35% # Bytes accessed per row activation
system.mem_ctrl.bytesPerActivate::384-511          228      5.10%     88.45% # Bytes accessed per row activation
system.mem_ctrl.bytesPerActivate::512-639          151      3.38%     91.83% # Bytes accessed per row activation
system.mem_ctrl.bytesPerActivate::640-767           63      1.41%     93.24% # Bytes accessed per row activation
system.mem_ctrl.bytesPerActivate::768-895           73      1.63%     94.88% # Bytes accessed per row activation
system.mem_ctrl.bytesPerActivate::896-1023           72      1.61%     96.49% # Bytes accessed per row activation
system.mem_ctrl.bytesPerActivate::1024-1151          157      3.51%    100.00% # Bytes accessed per row activation
system.mem_ctrl.bytesPerActivate::total          4469                       # Bytes accessed per row activation
system.mem_ctrl.rdPerTurnAround::samples          175                       # Reads before turning the bus around for writes
system.mem_ctrl.rdPerTurnAround::mean       70.965714                       # Reads before turning the bus around for writes
system.mem_ctrl.rdPerTurnAround::gmean      44.605536                       # Reads before turning the bus around for writes
system.mem_ctrl.rdPerTurnAround::stdev     158.881576                       # Reads before turning the bus around for writes
system.mem_ctrl.rdPerTurnAround::0-63             128     73.14%     73.14% # Reads before turning the bus around for writes
system.mem_ctrl.rdPerTurnAround::64-127            35     20.00%     93.14% # Reads before turning the bus around for writes
system.mem_ctrl.rdPerTurnAround::128-191            4      2.29%     95.43% # Reads before turning the bus around for writes
system.mem_ctrl.rdPerTurnAround::192-255            2      1.14%     96.57% # Reads before turning the bus around for writes
system.mem_ctrl.rdPerTurnAround::256-319            2      1.14%     97.71% # Reads before turning the bus around for writes
system.mem_ctrl.rdPerTurnAround::320-383            1      0.57%     98.29% # Reads before turning the bus around for writes
system.mem_ctrl.rdPerTurnAround::384-447            1      0.57%     98.86% # Reads before turning the bus around for writes
system.mem_ctrl.rdPerTurnAround::896-959            1      0.57%     99.43% # Reads before turning the bus around for writes
system.mem_ctrl.rdPerTurnAround::1792-1855            1      0.57%    100.00% # Reads before turning the bus around for writes
system.mem_ctrl.rdPerTurnAround::total            175                       # Reads before turning the bus around for writes
system.mem_ctrl.wrPerTurnAround::samples          175                       # Writes before turning the bus around for reads
system.mem_ctrl.wrPerTurnAround::mean       16.862857                       # Writes before turning the bus around for reads
system.mem_ctrl.wrPerTurnAround::gmean      16.834029                       # Writes before turning the bus around for reads
system.mem_ctrl.wrPerTurnAround::stdev       0.996282                       # Writes before turning the bus around for reads
system.mem_ctrl.wrPerTurnAround::16                96     54.86%     54.86% # Writes before turning the bus around for reads
system.mem_ctrl.wrPerTurnAround::17                11      6.29%     61.14% # Writes before turning the bus around for reads
system.mem_ctrl.wrPerTurnAround::18                64     36.57%     97.71% # Writes before turning the bus around for reads
system.mem_ctrl.wrPerTurnAround::19                 4      2.29%    100.00% # Writes before turning the bus around for reads
system.mem_ctrl.wrPerTurnAround::total            175                       # Writes before turning the bus around for reads
system.mem_ctrl.bytesReadDRAM                  796288                       # Total number of bytes read from DRAM
system.mem_ctrl.bytesReadWrQ                    16192                       # Total number of bytes read from write queue
system.mem_ctrl.bytesWritten                   188864                       # Total number of bytes written to DRAM
system.mem_ctrl.bytesReadSys                   812480                       # Total read bytes from the system interface side
system.mem_ctrl.bytesWrittenSys                217152                       # Total written bytes from the system interface side
system.mem_ctrl.avgRdBW                        177.05                       # Average DRAM read bandwidth in MiByte/s
system.mem_ctrl.avgWrBW                         41.99                       # Average achieved write bandwidth in MiByte/s
system.mem_ctrl.avgRdBWSys                     180.65                       # Average system read bandwidth in MiByte/s
system.mem_ctrl.avgWrBWSys                      48.28                       # Average system write bandwidth in MiByte/s
system.mem_ctrl.peakBW                       12800.00                       # Theoretical peak bandwidth in MiByte/s
system.mem_ctrl.busUtil                          1.71                       # Data bus utilization in percentage
system.mem_ctrl.busUtilRead                      1.38                       # Data bus utilization in percentage for reads
system.mem_ctrl.busUtilWrite                     0.33                       # Data bus utilization in percentage for writes
system.mem_ctrl.totGap                     4491951000                       # Total gap between requests
system.mem_ctrl.avgGap                      279211.28                       # Average gap between requests
system.mem_ctrl.masterReadBytes::.cpu.inst       298624                       # Per-master bytes read from memory
system.mem_ctrl.masterReadBytes::.cpu.data       497664                       # Per-master bytes read from memory
system.mem_ctrl.masterWriteBytes::.writebacks       188864                       # Per-master bytes write to memory
system.mem_ctrl.masterReadRate::.cpu.inst 66397348.410649493337                       # Per-master bytes read from memory rate (Bytes/sec)
system.mem_ctrl.masterReadRate::.cpu.data 110652760.660353720188                       # Per-master bytes read from memory rate (Bytes/sec)
system.mem_ctrl.masterWriteRate::.writebacks 41992836.510892979801                       # Per-master bytes write to memory rate (Bytes/sec)
system.mem_ctrl.masterReadAccesses::.cpu.inst         4666                       # Per-master read serviced memory accesses
system.mem_ctrl.masterReadAccesses::.cpu.data         8029                       # Per-master read serviced memory accesses
system.mem_ctrl.masterWriteAccesses::.writebacks         3393                       # Per-master write serviced memory accesses
system.mem_ctrl.masterReadTotalLat::.cpu.inst    141735750                       # Per-master read total memory access latency
system.mem_ctrl.masterReadTotalLat::.cpu.data    217325750                       # Per-master read total memory access latency
system.mem_ctrl.masterWriteTotalLat::.writebacks  97678887750                       # Per-master write total memory access latency
system.mem_ctrl.masterReadAvgLat::.cpu.inst     30376.29                       # Per-master read average memory access latency
system.mem_ctrl.masterReadAvgLat::.cpu.data     27067.60                       # Per-master read average memory access latency
system.mem_ctrl.masterWriteAvgLat::.writebacks  28788354.77                       # Per-master write average memory access latency
system.mem_ctrl.pageHitRate                     70.84                       # Row buffer hit rate, read and write combined
system.mem_ctrl.rank1.actEnergy              15565200                       # Energy for activate commands per rank (pJ)
system.mem_ctrl.rank1.preEnergy               8273100                       # Energy for precharge commands per rank (pJ)
system.mem_ctrl.rank1.readEnergy             46581360                       # Energy for read commands per rank (pJ)
system.mem_ctrl.rank1.writeEnergy             8999280                       # Energy for write commands per rank (pJ)
system.mem_ctrl.rank1.refreshEnergy      354647280.000000                       # Energy for refresh commands per rank (pJ)
system.mem_ctrl.rank1.actBackEnergy        1374389130                       # Energy for active background per rank (pJ)
system.mem_ctrl.rank1.preBackEnergy         569671200                       # Energy for precharge background per rank (pJ)
system.mem_ctrl.rank1.actPowerDownEnergy            0                       # Energy for active power-down per rank (pJ)
system.mem_ctrl.rank1.prePowerDownEnergy            0                       # Energy for precharge power-down per rank (pJ)
system.mem_ctrl.rank1.selfRefreshEnergy             0                       # Energy for self refresh per rank (pJ)
system.mem_ctrl.rank1.totalEnergy          2378126550                       # Total energy per rank (pJ)
system.mem_ctrl.rank1.averagePower         528.762916                       # Core power per rank (mW)
system.mem_ctrl.rank1.totalIdleTime                 0                       # Total Idle time Per DRAM Rank
system.mem_ctrl.rank1.memoryStateTime::IDLE   1467940000                       # Time in different power states
system.mem_ctrl.rank1.memoryStateTime::REF    150020000                       # Time in different power states
system.mem_ctrl.rank1.memoryStateTime::SREF            0                       # Time in different power states
system.mem_ctrl.rank1.memoryStateTime::PRE_PDN            0                       # Time in different power states
system.mem_ctrl.rank1.memoryStateTime::ACT   2879569000                       # Time in different power states
system.mem_ctrl.rank1.memoryStateTime::ACT_PDN            0                       # Time in different power states
system.mem_ctrl.rank0.actEnergy              16343460                       # Energy for activate commands per rank (pJ)
system.mem_ctrl.rank0.preEnergy               8686755                       # Energy for precharge commands per rank (pJ)
system.mem_ctrl.rank0.readEnergy             42254520                       # Energy for read commands per rank (pJ)
system.mem_ctrl.rank0.writeEnergy             6404940                       # Energy for write commands per rank (pJ)
system.mem_ctrl.rank0.refreshEnergy      354647280.000000                       # Energy for refresh commands per rank (pJ)
system.mem_ctrl.rank0.actBackEnergy        1771805100                       # Energy for active background per rank (pJ)
system.mem_ctrl.rank0.preBackEnergy         235005120                       # Energy for precharge background per rank (pJ)
system.mem_ctrl.rank0.actPowerDownEnergy            0                       # Energy for active power-down per rank (pJ)
system.mem_ctrl.rank0.prePowerDownEnergy            0                       # Energy for precharge power-down per rank (pJ)
system.mem_ctrl.rank0.selfRefreshEnergy             0                       # Energy for self refresh per rank (pJ)
system.mem_ctrl.rank0.totalEnergy          2435147175                       # Total energy per rank (pJ)
system.mem_ctrl.rank0.averagePower         541.441128                       # Core power per rank (mW)
system.mem_ctrl.rank0.totalIdleTime                 0                       # Total Idle time Per DRAM Rank
system.mem_ctrl.rank0.memoryStateTime::IDLE    594816500                       # Time in different power states
system.mem_ctrl.rank0.memoryStateTime::REF    150020000                       # Time in different power states
system.mem_ctrl.rank0.memoryStateTime::SREF            0                       # Time in different power states
system.mem_ctrl.rank0.memoryStateTime::PRE_PDN            0                       # Time in different power states
system.mem_ctrl.rank0.memoryStateTime::ACT   3752692500                       # Time in different power states
system.mem_ctrl.rank0.memoryStateTime::ACT_PDN            0                       # Time in different power states
system.mem_ctrl.power_state.pwrStateResidencyTicks::UNDEFINED   4497529000                       # Cumulative time (in ticks) in various power states
system.cache_medium.blocked_cycles::no_mshrs            0                       # number of cycles access was blocked
system.cache_medium.blocked_cycles::no_targets            0                       # number of cycles access was blocked
system.cache_medium.blocked::no_mshrs               0                       # number of cycles access was blocked
system.cache_medium.blocked::no_targets             0                       # number of cycles access was blocked
system.cache_medium.avg_blocked_cycles::no_mshrs          nan                       # average number of cycles each access was blocked
system.cache_medium.avg_blocked_cycles::no_targets          nan                       # average number of cycles each access was blocked
system.cache_medium.replacements                    0                       # number of replacements
system.cache_medium.power_state.pwrStateResidencyTicks::UNDEFINED   4497529000                       # Cumulative time (in ticks) in various power states
system.cache_medium.tags.tagsinuse                  0                       # Cycle average of tags in use
system.cache_medium.tags.total_refs                 0                       # Total number of references to valid blocks.
system.cache_medium.tags.sampled_refs               0                       # Sample count of references to valid blocks.
system.cache_medium.tags.avg_refs                 nan                       # Average number of references to valid blocks.
system.cache_medium.tags.warmup_cycle               0                       # Cycle when the warmup percentage was hit.
system.cache_medium.tags.tag_accesses               0                       # Number of tag accesses
system.cache_medium.tags.data_accesses              0                       # Number of data accesses
system.cache_medium.tags.power_state.pwrStateResidencyTicks::UNDEFINED   4497529000                       # Cumulative time (in ticks) in various power states
system.clk_domain.clock                          1000                       # Clock period in ticks
system.clk_domain.voltage_domain.voltage            1                       # Voltage in Volts
system.dcache.demand_hits::.cpu.data           347618                       # number of demand (read+write) hits
system.dcache.demand_hits::total               347618                       # number of demand (read+write) hits
system.dcache.overall_hits::.cpu.data          351948                       # number of overall hits
system.dcache.overall_hits::total              351948                       # number of overall hits
system.dcache.demand_misses::.cpu.data          14883                       # number of demand (read+write) misses
system.dcache.demand_misses::total              14883                       # number of demand (read+write) misses
system.dcache.overall_misses::.cpu.data         16935                       # number of overall misses
system.dcache.overall_misses::total             16935                       # number of overall misses
system.dcache.demand_miss_latency::.cpu.data    599221000                       # number of demand (read+write) miss cycles
system.dcache.demand_miss_latency::total    599221000                       # number of demand (read+write) miss cycles
system.dcache.overall_miss_latency::.cpu.data    720530000                       # number of overall miss cycles
system.dcache.overall_miss_latency::total    720530000                       # number of overall miss cycles
system.dcache.demand_accesses::.cpu.data       362501                       # number of demand (read+write) accesses
system.dcache.demand_accesses::total           362501                       # number of demand (read+write) accesses
system.dcache.overall_accesses::.cpu.data       368883                       # number of overall (read+write) accesses
system.dcache.overall_accesses::total          368883                       # number of overall (read+write) accesses
system.dcache.demand_miss_rate::.cpu.data     0.041056                       # miss rate for demand accesses
system.dcache.demand_miss_rate::total        0.041056                       # miss rate for demand accesses
system.dcache.overall_miss_rate::.cpu.data     0.045909                       # miss rate for overall accesses
system.dcache.overall_miss_rate::total       0.045909                       # miss rate for overall accesses
system.dcache.demand_avg_miss_latency::.cpu.data 40262.111134                       # average overall miss latency
system.dcache.demand_avg_miss_latency::total 40262.111134                       # average overall miss latency
system.dcache.overall_avg_miss_latency::.cpu.data 42546.796575                       # average overall miss latency
system.dcache.overall_avg_miss_latency::total 42546.796575                       # average overall miss latency
system.dcache.blocked_cycles::no_mshrs              0                       # number of cycles access was blocked
system.dcache.blocked_cycles::no_targets            0                       # number of cycles access was blocked
system.dcache.blocked::no_mshrs                     0                       # number of cycles access was blocked
system.dcache.blocked::no_targets                   0                       # number of cycles access was blocked
system.dcache.avg_blocked_cycles::no_mshrs          nan                       # average number of cycles each access was blocked
system.dcache.avg_blocked_cycles::no_targets          nan                       # average number of cycles each access was blocked
system.dcache.writebacks::.writebacks            6724                       # number of writebacks
system.dcache.writebacks::total                  6724                       # number of writebacks
system.dcache.demand_mshr_misses::.cpu.data        14883                       # number of demand (read+write) MSHR misses
system.dcache.demand_mshr_misses::total         14883                       # number of demand (read+write) MSHR misses
system.dcache.overall_mshr_misses::.cpu.data        16935                       # number of overall MSHR misses
system.dcache.overall_mshr_misses::total        16935                       # number of overall MSHR misses
system.dcache.demand_mshr_miss_latency::.cpu.data    569457000                       # number of demand (read+write) MSHR miss cycles
system.dcache.demand_mshr_miss_latency::total    569457000                       # number of demand (read+write) MSHR miss cycles
system.dcache.overall_mshr_miss_latency::.cpu.data    686662000                       # number of overall MSHR miss cycles
system.dcache.overall_mshr_miss_latency::total    686662000                       # number of overall MSHR miss cycles
system.dcache.demand_mshr_miss_rate::.cpu.data     0.041056                       # mshr miss rate for demand accesses
system.dcache.demand_mshr_miss_rate::total     0.041056                       # mshr miss rate for demand accesses
system.dcache.overall_mshr_miss_rate::.cpu.data     0.045909                       # mshr miss rate for overall accesses
system.dcache.overall_mshr_miss_rate::total     0.045909                       # mshr miss rate for overall accesses
system.dcache.demand_avg_mshr_miss_latency::.cpu.data 38262.245515                       # average overall mshr miss latency
system.dcache.demand_avg_mshr_miss_latency::total 38262.245515                       # average overall mshr miss latency
system.dcache.overall_avg_mshr_miss_latency::.cpu.data 40546.914674                       # average overall mshr miss latency
system.dcache.overall_avg_mshr_miss_latency::total 40546.914674                       # average overall mshr miss latency
system.dcache.replacements                      16678                       # number of replacements
system.dcache.ReadReq_hits::.cpu.data          247210                       # number of ReadReq hits
system.dcache.ReadReq_hits::total              247210                       # number of ReadReq hits
system.dcache.ReadReq_misses::.cpu.data         10036                       # number of ReadReq misses
system.dcache.ReadReq_misses::total             10036                       # number of ReadReq misses
system.dcache.ReadReq_miss_latency::.cpu.data    361498000                       # number of ReadReq miss cycles
system.dcache.ReadReq_miss_latency::total    361498000                       # number of ReadReq miss cycles
system.dcache.ReadReq_accesses::.cpu.data       257246                       # number of ReadReq accesses(hits+misses)
system.dcache.ReadReq_accesses::total          257246                       # number of ReadReq accesses(hits+misses)
system.dcache.ReadReq_miss_rate::.cpu.data     0.039013                       # miss rate for ReadReq accesses
system.dcache.ReadReq_miss_rate::total       0.039013                       # miss rate for ReadReq accesses
system.dcache.ReadReq_avg_miss_latency::.cpu.data 36020.127541                       # average ReadReq miss latency
system.dcache.ReadReq_avg_miss_latency::total 36020.127541                       # average ReadReq miss latency
system.dcache.ReadReq_mshr_misses::.cpu.data        10036                       # number of ReadReq MSHR misses
system.dcache.ReadReq_mshr_misses::total        10036                       # number of ReadReq MSHR misses
system.dcache.ReadReq_mshr_miss_latency::.cpu.data    341428000                       # number of ReadReq MSHR miss cycles
system.dcache.ReadReq_mshr_miss_latency::total    341428000                       # number of ReadReq MSHR miss cycles
system.dcache.ReadReq_mshr_miss_rate::.cpu.data     0.039013                       # mshr miss rate for ReadReq accesses
system.dcache.ReadReq_mshr_miss_rate::total     0.039013                       # mshr miss rate for ReadReq accesses
system.dcache.ReadReq_avg_mshr_miss_latency::.cpu.data 34020.326823                       # average ReadReq mshr miss latency
system.dcache.ReadReq_avg_mshr_miss_latency::total 34020.326823                       # average ReadReq mshr miss latency
system.dcache.WriteReq_hits::.cpu.data         100408                       # number of WriteReq hits
system.dcache.WriteReq_hits::total             100408                       # number of WriteReq hits
system.dcache.WriteReq_misses::.cpu.data         4847                       # number of WriteReq misses
system.dcache.WriteReq_misses::total             4847                       # number of WriteReq misses
system.dcache.WriteReq_miss_latency::.cpu.data    237723000                       # number of WriteReq miss cycles
system.dcache.WriteReq_miss_latency::total    237723000                       # number of WriteReq miss cycles
system.dcache.WriteReq_accesses::.cpu.data       105255                       # number of WriteReq accesses(hits+misses)
system.dcache.WriteReq_accesses::total         105255                       # number of WriteReq accesses(hits+misses)
system.dcache.WriteReq_miss_rate::.cpu.data     0.046050                       # miss rate for WriteReq accesses
system.dcache.WriteReq_miss_rate::total      0.046050                       # miss rate for WriteReq accesses
system.dcache.WriteReq_avg_miss_latency::.cpu.data 49045.388900                       # average WriteReq miss latency
system.dcache.WriteReq_avg_miss_latency::total 49045.388900                       # average WriteReq miss latency
system.dcache.WriteReq_mshr_misses::.cpu.data         4847                       # number of WriteReq MSHR misses
system.dcache.WriteReq_mshr_misses::total         4847                       # number of WriteReq MSHR misses
system.dcache.WriteReq_mshr_miss_latency::.cpu.data    228029000                       # number of WriteReq MSHR miss cycles
system.dcache.WriteReq_mshr_miss_latency::total    228029000                       # number of WriteReq MSHR miss cycles
system.dcache.WriteReq_mshr_miss_rate::.cpu.data     0.046050                       # mshr miss rate for WriteReq accesses
system.dcache.WriteReq_mshr_miss_rate::total     0.046050                       # mshr miss rate for WriteReq accesses
system.dcache.WriteReq_avg_mshr_miss_latency::.cpu.data 47045.388900                       # average WriteReq mshr miss latency
system.dcache.WriteReq_avg_mshr_miss_latency::total 47045.388900                       # average WriteReq mshr miss latency
system.dcache.SoftPFReq_hits::.cpu.data          4330                       # number of SoftPFReq hits
system.dcache.SoftPFReq_hits::total              4330                       # number of SoftPFReq hits
system.dcache.SoftPFReq_misses::.cpu.data         2052                       # number of SoftPFReq misses
system.dcache.SoftPFReq_misses::total            2052                       # number of SoftPFReq misses
system.dcache.SoftPFReq_miss_latency::.cpu.data    121309000                       # number of SoftPFReq miss cycles
system.dcache.SoftPFReq_miss_latency::total    121309000                       # number of SoftPFReq miss cycles
system.dcache.SoftPFReq_accesses::.cpu.data         6382                       # number of SoftPFReq accesses(hits+misses)
system.dcache.SoftPFReq_accesses::total          6382                       # number of SoftPFReq accesses(hits+misses)
system.dcache.SoftPFReq_miss_rate::.cpu.data     0.321529                       # miss rate for SoftPFReq accesses
system.dcache.SoftPFReq_miss_rate::total     0.321529                       # miss rate for SoftPFReq accesses
system.dcache.SoftPFReq_avg_miss_latency::.cpu.data 59117.446394                       # average SoftPFReq miss latency
system.dcache.SoftPFReq_avg_miss_latency::total 59117.446394                       # average SoftPFReq miss latency
system.dcache.SoftPFReq_mshr_misses::.cpu.data         2052                       # number of SoftPFReq MSHR misses
system.dcache.SoftPFReq_mshr_misses::total         2052                       # number of SoftPFReq MSHR misses
system.dcache.SoftPFReq_mshr_miss_latency::.cpu.data    117205000                       # number of SoftPFReq MSHR miss cycles
system.dcache.SoftPFReq_mshr_miss_latency::total    117205000                       # number of SoftPFReq MSHR miss cycles
system.dcache.SoftPFReq_mshr_miss_rate::.cpu.data     0.321529                       # mshr miss rate for SoftPFReq accesses
system.dcache.SoftPFReq_mshr_miss_rate::total     0.321529                       # mshr miss rate for SoftPFReq accesses
system.dcache.SoftPFReq_avg_mshr_miss_latency::.cpu.data 57117.446394                       # average SoftPFReq mshr miss latency
system.dcache.SoftPFReq_avg_mshr_miss_latency::total 57117.446394                       # average SoftPFReq mshr miss latency
system.dcache.power_state.pwrStateResidencyTicks::UNDEFINED   4497529000                       # Cumulative time (in ticks) in various power states
system.dcache.tags.tagsinuse               250.574783                       # Cycle average of tags in use
system.dcache.tags.total_refs                  336339                       # Total number of references to valid blocks.
system.dcache.tags.sampled_refs                 16678                       # Sample count of references to valid blocks.
system.dcache.tags.avg_refs                 20.166627                       # Average number of references to valid blocks.
system.dcache.tags.warmup_cycle                167000                       # Cycle when the warmup percentage was hit.
system.dcache.tags.occ_blocks::.cpu.data   250.574783                       # Average occupied blocks per requestor
system.dcache.tags.occ_percent::.cpu.data     0.978808                       # Average percentage of cache occupancy
system.dcache.tags.occ_percent::total        0.978808                       # Average percentage of cache occupancy
system.dcache.tags.occ_task_id_blocks::1024          256                       # Occupied blocks per task id
system.dcache.tags.age_task_id_blocks_1024::0            3                       # Occupied blocks per task id
system.dcache.tags.age_task_id_blocks_1024::1           22                       # Occupied blocks per task id
system.dcache.tags.age_task_id_blocks_1024::2          184                       # Occupied blocks per task id
system.dcache.tags.age_task_id_blocks_1024::3           47                       # Occupied blocks per task id
system.dcache.tags.occ_task_id_percent::1024            1                       # Percentage of cache occupancy per task id
system.dcache.tags.tag_accesses                385817                       # Number of tag accesses
system.dcache.tags.data_accesses               385817                       # Number of data accesses
system.dcache.tags.power_state.pwrStateResidencyTicks::UNDEFINED   4497529000                       # Cumulative time (in ticks) in various power states
system.cache_large.blocked_cycles::no_mshrs            0                       # number of cycles access was blocked
system.cache_large.blocked_cycles::no_targets            0                       # number of cycles access was blocked
system.cache_large.blocked::no_mshrs                0                       # number of cycles access was blocked
system.cache_large.blocked::no_targets              0                       # number of cycles access was blocked
system.cache_large.avg_blocked_cycles::no_mshrs          nan                       # average number of cycles each access was blocked
system.cache_large.avg_blocked_cycles::no_targets          nan                       # average number of cycles each access was blocked
system.cache_large.replacements                     0                       # number of replacements
system.cache_large.power_state.pwrStateResidencyTicks::UNDEFINED   4497529000                       # Cumulative time (in ticks) in various power states
system.cache_large.tags.tagsinuse                   0                       # Cycle average of tags in use
system.cache_large.tags.total_refs                  0                       # Total number of references to valid blocks.
system.cache_large.tags.sampled_refs                0                       # Sample count of references to valid blocks.
system.cache_large.tags.avg_refs                  nan                       # Average number of references to valid blocks.
system.cache_large.tags.warmup_cycle                0                       # Cycle when the warmup percentage was hit.
system.cache_large.tags.tag_accesses                0                       # Number of tag accesses
system.cache_large.tags.data_accesses               0                       # Number of data accesses
system.cache_large.tags.power_state.pwrStateResidencyTicks::UNDEFINED   4497529000                       # Cumulative time (in ticks) in various power states
[...]
system.dcache.tags.age_task_id_blocks_1024::2          144                       # Occupied blocks per task id
system.dcache.tags.age_task_id_blocks_1024::3           87                       # Occupied blocks per task id
system.dcache.tags.occ_task_id_percent::1024            1                       # Percentage of cache occupancy per task id
system.dcache.tags.tag_accesses               2211947                       # Number of tag accesses
system.dcache.tags.data_accesses              2211947                       # Number of data accesses
system.dcache.tags.power_state.pwrStateResidencyTicks::UNDEFINED  19486585000                       # Cumulative time (in ticks) in various power states
system.cache_large.blocked_cycles::no_mshrs            0                       # number of cycles access was blocked
system.cache_large.blocked_cycles::no_targets            0                       # number of cycles access was blocked
system.cache_large.blocked::no_mshrs                0                       # number of cycles access was blocked
system.cache_large.blocked::no_targets              0                       # number of cycles access was blocked
system.cache_large.avg_blocked_cycles::no_mshrs          nan                       # average number of cycles each access was blocked
system.cache_large.avg_blocked_cycles::no_targets          nan                       # average number of cycles each access was blocked
system.cache_large.replacements                     0                       # number of replacements
system.cache_large.power_state.pwrStateResidencyTicks::UNDEFINED  19486585000                       # Cumulative time (in ticks) in various power states
system.cache_large.tags.tagsinuse                   0                       # Cycle average of tags in use
system.cache_large.tags.total_refs                  0                       # Total number of references to valid blocks.
system.cache_large.tags.sampled_refs                0                       # Sample count of references to valid blocks.
system.cache_large.tags.avg_refs                  nan                       # Average number of references to valid blocks.
system.cache_large.tags.warmup_cycle                0                       # Cycle when the warmup percentage was hit.
system.cache_large.tags.tag_accesses                0                       # Number of tag accesses
system.cache_large.tags.data_accesses               0                       # Number of data accesses
system.cache_large.tags.power_state.pwrStateResidencyTicks::UNDEFINED  19486585000                       # Cumulative time (in ticks) in various power states
system.l2cache.demand_hits::.cpu.inst            1670                       # number of demand (read+write) hits
system.l2cache.demand_hits::.cpu.data           92434                       # number of demand (read+write) hits
system.l2cache.demand_hits::total               94104                       # number of demand (read+write) hits
system.l2cache.overall_hits::.cpu.inst           1670                       # number of overall hits
system.l2cache.overall_hits::.cpu.data          92434                       # number of overall hits
system.l2cache.overall_hits::total              94104                       # number of overall hits
system.l2cache.demand_misses::.cpu.inst          4872                       # number of demand (read+write) misses
system.l2cache.demand_misses::.cpu.data         12817                       # number of demand (read+write) misses
system.l2cache.demand_misses::total             17689                       # number of demand (read+write) misses
system.l2cache.overall_misses::.cpu.inst         4872                       # number of overall misses
system.l2cache.overall_misses::.cpu.data        12817                       # number of overall misses
system.l2cache.overall_misses::total            17689                       # number of overall misses
system.l2cache.demand_miss_latency::.cpu.inst    345652000                       # number of demand (read+write) miss cycles
system.l2cache.demand_miss_latency::.cpu.data    869759000                       # number of demand (read+write) miss cycles
system.l2cache.demand_miss_latency::total   1215411000                       # number of demand (read+write) miss cycles
system.l2cache.overall_miss_latency::.cpu.inst    345652000                       # number of overall miss cycles
system.l2cache.overall_miss_latency::.cpu.data    869759000                       # number of overall miss cycles
system.l2cache.overall_miss_latency::total   1215411000                       # number of overall miss cycles
system.l2cache.demand_accesses::.cpu.inst         6542                       # number of demand (read+write) accesses
system.l2cache.demand_accesses::.cpu.data       105251                       # number of demand (read+write) accesses
system.l2cache.demand_accesses::total          111793                       # number of demand (read+write) accesses
system.l2cache.overall_accesses::.cpu.inst         6542                       # number of overall (read+write) accesses
system.l2cache.overall_accesses::.cpu.data       105251                       # number of overall (read+write) accesses
system.l2cache.overall_accesses::total         111793                       # number of overall (read+write) accesses
system.l2cache.demand_miss_rate::.cpu.inst     0.744726                       # miss rate for demand accesses
system.l2cache.demand_miss_rate::.cpu.data     0.121776                       # miss rate for demand accesses
system.l2cache.demand_miss_rate::total       0.158230                       # miss rate for demand accesses
system.l2cache.overall_miss_rate::.cpu.inst     0.744726                       # miss rate for overall accesses
system.l2cache.overall_miss_rate::.cpu.data     0.121776                       # miss rate for overall accesses
system.l2cache.overall_miss_rate::total      0.158230                       # miss rate for overall accesses
system.l2cache.demand_avg_miss_latency::.cpu.inst 70946.633826                       # average overall miss latency
system.l2cache.demand_avg_miss_latency::.cpu.data 67859.795584                       # average overall miss latency
system.l2cache.demand_avg_miss_latency::total 68709.989259                       # average overall miss latency
system.l2cache.overall_avg_miss_latency::.cpu.inst 70946.633826                       # average overall miss latency
system.l2cache.overall_avg_miss_latency::.cpu.data 67859.795584                       # average overall miss latency
system.l2cache.overall_avg_miss_latency::total 68709.989259                       # average overall miss latency
system.l2cache.blocked_cycles::no_mshrs             0                       # number of cycles access was blocked
system.l2cache.blocked_cycles::no_targets            0                       # number of cycles access was blocked
system.l2cache.blocked::no_mshrs                    0                       # number of cycles access was blocked
system.l2cache.blocked::no_targets                  0                       # number of cycles access was blocked
system.l2cache.avg_blocked_cycles::no_mshrs          nan                       # average number of cycles each access was blocked
system.l2cache.avg_blocked_cycles::no_targets          nan                       # average number of cycles each access was blocked
system.l2cache.writebacks::.writebacks           7124                       # number of writebacks
system.l2cache.writebacks::total                 7124                       # number of writebacks
system.l2cache.demand_mshr_misses::.cpu.inst         4872                       # number of demand (read+write) MSHR misses
system.l2cache.demand_mshr_misses::.cpu.data        12817                       # number of demand (read+write) MSHR misses
system.l2cache.demand_mshr_misses::total        17689                       # number of demand (read+write) MSHR misses
system.l2cache.overall_mshr_misses::.cpu.inst         4872                       # number of overall MSHR misses
system.l2cache.overall_mshr_misses::.cpu.data        12817                       # number of overall MSHR misses
system.l2cache.overall_mshr_misses::total        17689                       # number of overall MSHR misses
system.l2cache.demand_mshr_miss_latency::.cpu.inst    335908000                       # number of demand (read+write) MSHR miss cycles
system.l2cache.demand_mshr_miss_latency::.cpu.data    844125000                       # number of demand (read+write) MSHR miss cycles
system.l2cache.demand_mshr_miss_latency::total   1180033000                       # number of demand (read+write) MSHR miss cycles
system.l2cache.overall_mshr_miss_latency::.cpu.inst    335908000                       # number of overall MSHR miss cycles
system.l2cache.overall_mshr_miss_latency::.cpu.data    844125000                       # number of overall MSHR miss cycles
system.l2cache.overall_mshr_miss_latency::total   1180033000                       # number of overall MSHR miss cycles
system.l2cache.demand_mshr_miss_rate::.cpu.inst     0.744726                       # mshr miss rate for demand accesses
system.l2cache.demand_mshr_miss_rate::.cpu.data     0.121776                       # mshr miss rate for demand accesses
system.l2cache.demand_mshr_miss_rate::total     0.158230                       # mshr miss rate for demand accesses
system.l2cache.overall_mshr_miss_rate::.cpu.inst     0.744726                       # mshr miss rate for overall accesses
system.l2cache.overall_mshr_miss_rate::.cpu.data     0.121776                       # mshr miss rate for overall accesses
system.l2cache.overall_mshr_miss_rate::total     0.158230                       # mshr miss rate for overall accesses
system.l2cache.demand_avg_mshr_miss_latency::.cpu.inst 68946.633826                       # average overall mshr miss latency
system.l2cache.demand_avg_mshr_miss_latency::.cpu.data 65859.795584                       # average overall mshr miss latency
system.l2cache.demand_avg_mshr_miss_latency::total 66709.989259                       # average overall mshr miss latency
system.l2cache.overall_avg_mshr_miss_latency::.cpu.inst 68946.633826                       # average overall mshr miss latency
system.l2cache.overall_avg_mshr_miss_latency::.cpu.data 65859.795584                       # average overall mshr miss latency
system.l2cache.overall_avg_mshr_miss_latency::total 66709.989259                       # average overall mshr miss latency
system.l2cache.replacements                     21558                       # number of replacements
system.l2cache.ReadReq_hits::.cpu.inst           1670                       # number of ReadReq hits
system.l2cache.ReadReq_hits::.cpu.data          92434                       # number of ReadReq hits
system.l2cache.ReadReq_hits::total              94104                       # number of ReadReq hits
system.l2cache.ReadReq_misses::.cpu.inst         4872                       # number of ReadReq misses
system.l2cache.ReadReq_misses::.cpu.data        12817                       # number of ReadReq misses
system.l2cache.ReadReq_misses::total            17689                       # number of ReadReq misses
system.l2cache.ReadReq_miss_latency::.cpu.inst    345652000                       # number of ReadReq miss cycles
system.l2cache.ReadReq_miss_latency::.cpu.data    869759000                       # number of ReadReq miss cycles
system.l2cache.ReadReq_miss_latency::total   1215411000                       # number of ReadReq miss cycles
system.l2cache.ReadReq_accesses::.cpu.inst         6542                       # number of ReadReq accesses(hits+misses)
system.l2cache.ReadReq_accesses::.cpu.data       105251                       # number of ReadReq accesses(hits+misses)
system.l2cache.ReadReq_accesses::total         111793                       # number of ReadReq accesses(hits+misses)
system.l2cache.ReadReq_miss_rate::.cpu.inst     0.744726                       # miss rate for ReadReq accesses
system.l2cache.ReadReq_miss_rate::.cpu.data     0.121776                       # miss rate for ReadReq accesses
system.l2cache.ReadReq_miss_rate::total      0.158230                       # miss rate for ReadReq accesses
system.l2cache.ReadReq_avg_miss_latency::.cpu.inst 70946.633826                       # average ReadReq miss latency
system.l2cache.ReadReq_avg_miss_latency::.cpu.data 67859.795584                       # average ReadReq miss latency
system.l2cache.ReadReq_avg_miss_latency::total 68709.989259                       # average ReadReq miss latency
system.l2cache.ReadReq_mshr_misses::.cpu.inst         4872                       # number of ReadReq MSHR misses
system.l2cache.ReadReq_mshr_misses::.cpu.data        12817                       # number of ReadReq MSHR misses
system.l2cache.ReadReq_mshr_misses::total        17689                       # number of ReadReq MSHR misses
system.l2cache.ReadReq_mshr_miss_latency::.cpu.inst    335908000                       # number of ReadReq MSHR miss cycles
system.l2cache.ReadReq_mshr_miss_latency::.cpu.data    844125000                       # number of ReadReq MSHR miss cycles
system.l2cache.ReadReq_mshr_miss_latency::total   1180033000                       # number of ReadReq MSHR miss cycles
system.l2cache.ReadReq_mshr_miss_rate::.cpu.inst     0.744726                       # mshr miss rate for ReadReq accesses
system.l2cache.ReadReq_mshr_miss_rate::.cpu.data     0.121776                       # mshr miss rate for ReadReq accesses
system.l2cache.ReadReq_mshr_miss_rate::total     0.158230                       # mshr miss rate for ReadReq accesses
system.l2cache.ReadReq_avg_mshr_miss_latency::.cpu.inst 68946.633826                       # average ReadReq mshr miss latency
system.l2cache.ReadReq_avg_mshr_miss_latency::.cpu.data 65859.795584                       # average ReadReq mshr miss latency
system.l2cache.ReadReq_avg_mshr_miss_latency::total 66709.989259                       # average ReadReq mshr miss latency
system.l2cache.WritebackDirty_hits::.writebacks        51323                       # number of WritebackDirty hits
system.l2cache.WritebackDirty_hits::total        51323                       # number of WritebackDirty hits
system.l2cache.WritebackDirty_accesses::.writebacks        51323                       # number of WritebackDirty accesses(hits+misses)
system.l2cache.WritebackDirty_accesses::total        51323                       # number of WritebackDirty accesses(hits+misses)
system.l2cache.power_state.pwrStateResidencyTicks::UNDEFINED  19486585000                       # Cumulative time (in ticks) in various power states
system.l2cache.tags.tagsinuse              509.981519                       # Cycle average of tags in use
system.l2cache.tags.total_refs                 163116                       # Total number of references to valid blocks.
system.l2cache.tags.sampled_refs                22070                       # Sample count of references to valid blocks.
system.l2cache.tags.avg_refs                 7.390847                       # Average number of references to valid blocks.
system.l2cache.tags.warmup_cycle                76000                       # Cycle when the warmup percentage was hit.
system.l2cache.tags.occ_blocks::.writebacks   102.782695                       # Average occupied blocks per requestor
system.l2cache.tags.occ_blocks::.cpu.inst    41.940923                       # Average occupied blocks per requestor
system.l2cache.tags.occ_blocks::.cpu.data   365.257901                       # Average occupied blocks per requestor
system.l2cache.tags.occ_percent::.writebacks     0.200747                       # Average percentage of cache occupancy
system.l2cache.tags.occ_percent::.cpu.inst     0.081916                       # Average percentage of cache occupancy
system.l2cache.tags.occ_percent::.cpu.data     0.713394                       # Average percentage of cache occupancy
system.l2cache.tags.occ_percent::total       0.996058                       # Average percentage of cache occupancy
system.l2cache.tags.occ_task_id_blocks::1024          512                       # Occupied blocks per task id
system.l2cache.tags.age_task_id_blocks_1024::0            3                       # Occupied blocks per task id
system.l2cache.tags.age_task_id_blocks_1024::1           21                       # Occupied blocks per task id
system.l2cache.tags.age_task_id_blocks_1024::2          215                       # Occupied blocks per task id
system.l2cache.tags.age_task_id_blocks_1024::3          273                       # Occupied blocks per task id
system.l2cache.tags.occ_task_id_percent::1024            1                       # Percentage of cache occupancy per task id
system.l2cache.tags.tag_accesses               185186                       # Number of tag accesses
system.l2cache.tags.data_accesses              185186                       # Number of data accesses
system.l2cache.tags.power_state.pwrStateResidencyTicks::UNDEFINED  19486585000                       # Cumulative time (in ticks) in various power states
system.l2bar.trans_dist::ReadReq               111793                       # Transaction distribution
system.l2bar.trans_dist::ReadResp              111793                       # Transaction distribution
system.l2bar.trans_dist::WritebackDirty         51323                       # Transaction distribution
system.l2bar.pkt_count_system.dcache.mem_side::system.l2cache.cpu_side       261825                       # Packet count per connected master and slave (bytes)
system.l2bar.pkt_count_system.icache.mem_side::system.l2cache.cpu_side        13084                       # Packet count per connected master and slave (bytes)
system.l2bar.pkt_count::total                  274909                       # Packet count per connected master and slave (bytes)
system.l2bar.pkt_size_system.dcache.mem_side::system.l2cache.cpu_side     10020736                       # Cumulative packet size per connected master and slave (bytes)
system.l2bar.pkt_size_system.icache.mem_side::system.l2cache.cpu_side       418688                       # Cumulative packet size per connected master and slave (bytes)
system.l2bar.pkt_size::total                 10439424                       # Cumulative packet size per connected master and slave (bytes)
system.l2bar.respLayer1.occupancy            32710000                       # Layer occupancy (ticks)
system.l2bar.respLayer1.utilization               0.2                       # Layer utilization (%)
system.l2bar.reqLayer0.occupancy            368408000                       # Layer occupancy (ticks)
system.l2bar.reqLayer0.utilization                1.9                       # Layer utilization (%)
system.l2bar.respLayer0.occupancy           526255000                       # Layer occupancy (ticks)
system.l2bar.respLayer0.utilization               2.7                       # Layer utilization (%)
system.l2bar.power_state.pwrStateResidencyTicks::UNDEFINED  19486585000                       # Cumulative time (in ticks) in various power states
system.cpu.dtb.walker.power_state.pwrStateResidencyTicks::UNDEFINED  19486585000                       # Cumulative time (in ticks) in various power states
system.cpu.interrupts.clk_domain.clock          16000                       # Clock period in ticks
system.cpu.itb.walker.power_state.pwrStateResidencyTicks::UNDEFINED  19486585000                       # Cumulative time (in ticks) in various power states
system.cpu.power_state.numTransitions               1                       # Number of power state transitions
system.cpu.power_state.pwrStateResidencyTicks::ON  19486585000                       # Cumulative time (in ticks) in various power states

---------- End Simulation Statistics   ----------
