
---------- Begin Simulation Statistics ----------
final_tick                               331118901000                       # Number of ticks from beginning of simulation (restored from checkpoints and never reset)
host_inst_rate                                 995316                       # Simulator instruction rate (inst/s)
host_mem_usage                                 691032                       # Number of bytes of host memory used
host_op_rate                                  1674311                       # Simulator op (including micro ops) rate (op/s)
host_seconds                                   311.46                       # Real time elapsed on the host
host_tick_rate                             1035131242                       # Simulator tick rate (ticks/s)
sim_freq                                 1000000000000                       # Frequency of simulated ticks
sim_insts                                   310000001                       # Number of instructions simulated
sim_ops                                     521479325                       # Number of ops (including micro ops) simulated
sim_seconds                                  0.322401                       # Number of seconds simulated
sim_ticks                                322401093000                       # Number of ticks simulated
system.cpu.committedInsts                           0                       # Number of instructions committed
system.cpu.committedOps                             0                       # Number of ops (including micro ops) committed
system.cpu.dtb.rdAccesses                           0                       # TLB accesses on read requests
system.cpu.dtb.rdMisses                             0                       # TLB misses on read requests
system.cpu.dtb.wrAccesses                           0                       # TLB accesses on write requests
system.cpu.dtb.wrMisses                             0                       # TLB misses on write requests
system.cpu.idle_fraction                            0                       # Percentage of idle cycles
system.cpu.itb.rdAccesses                           0                       # TLB accesses on read requests
system.cpu.itb.rdMisses                             0                       # TLB misses on read requests
system.cpu.itb.wrAccesses                           0                       # TLB accesses on write requests
system.cpu.itb.wrMisses                             0                       # TLB misses on write requests
system.cpu.not_idle_fraction                        1                       # Percentage of non-idle cycles
system.cpu.numCycles                                0                       # number of cpu cycles simulated
system.cpu.numWorkItemsCompleted                    0                       # number of work items this cpu completed
system.cpu.numWorkItemsStarted                      0                       # number of work items this cpu started
system.cpu.num_busy_cycles                          0                       # Number of busy cycles
system.cpu.num_conditional_control_insts            0                       # number of instructions that are conditional controls
system.cpu.num_fp_alu_accesses                      0                       # Number of float alu accesses
system.cpu.num_fp_insts                             0                       # number of float instructions
system.cpu.num_fp_register_reads                    0                       # number of times the floating registers were read
system.cpu.num_fp_register_writes                   0                       # number of times the floating registers were written
system.cpu.num_func_calls                           0                       # number of times a function call or return occured
system.cpu.num_idle_cycles                          0                       # Number of idle cycles
system.cpu.num_int_alu_accesses                     0                       # Number of integer alu accesses
system.cpu.num_int_insts                            0                       # number of integer instructions
system.cpu.num_int_register_reads                   0                       # number of times the integer registers were read
system.cpu.num_int_register_writes                  0                       # number of times the integer registers were written
system.cpu.num_load_insts                           0                       # Number of load instructions
system.cpu.num_mem_refs                             0                       # number of memory refs
system.cpu.num_store_insts                          0                       # Number of store instructions
system.cpu.num_vec_alu_accesses                     0                       # Number of vector alu accesses
system.cpu.num_vec_insts                            0                       # number of vector instructions
system.cpu.num_vec_register_reads                   0                       # number of times the vector registers were read
system.cpu.num_vec_register_writes                  0                       # number of times the vector registers were written
system.cpu.op_class::No_OpClass                     0                       # Class of executed instruction
system.cpu.op_class::IntAlu                         0                       # Class of executed instruction
system.cpu.op_class::IntMult                        0                       # Class of executed instruction
system.cpu.op_class::IntDiv                         0                       # Class of executed instruction
system.cpu.op_class::FloatAdd                       0                       # Class of executed instruction
system.cpu.op_class::FloatCmp                       0                       # Class of executed instruction
system.cpu.op_class::FloatCvt                       0                       # Class of executed instruction
system.cpu.op_class::FloatMult                      0                       # Class of executed instruction
system.cpu.op_class::FloatMultAcc                   0                       # Class of executed instruction
system.cpu.op_class::FloatDiv                       0                       # Class of executed instruction
system.cpu.op_class::FloatMisc                      0                       # Class of executed instruction
system.cpu.op_class::FloatSqrt                      0                       # Class of executed instruction
system.cpu.op_class::SimdAdd                        0                       # Class of executed instruction
system.cpu.op_class::SimdAddAcc                     0                       # Class of executed instruction
system.cpu.op_class::SimdAlu                        0                       # Class of executed instruction
system.cpu.op_class::SimdCmp                        0                       # Class of executed instruction
system.cpu.op_class::SimdCvt                        0                       # Class of executed instruction
system.cpu.op_class::SimdMisc                       0                       # Class of executed instruction
system.cpu.op_class::SimdMult                       0                       # Class of executed instruction
system.cpu.op_class::SimdMultAcc                    0                       # Class of executed instruction
system.cpu.op_class::SimdShift                      0                       # Class of executed instruction
system.cpu.op_class::SimdShiftAcc                   0                       # Class of executed instruction
system.cpu.op_class::SimdDiv                        0                       # Class of executed instruction
system.cpu.op_class::SimdSqrt                       0                       # Class of executed instruction
system.cpu.op_class::SimdFloatAdd                   0                       # Class of executed instruction
system.cpu.op_class::SimdFloatAlu                   0                       # Class of executed instruction
system.cpu.op_class::SimdFloatCmp                   0                       # Class of executed instruction
system.cpu.op_class::SimdFloatCvt                   0                       # Class of executed instruction
system.cpu.op_class::SimdFloatDiv                   0                       # Class of executed instruction
system.cpu.op_class::SimdFloatMisc                  0                       # Class of executed instruction
system.cpu.op_class::SimdFloatMult                  0                       # Class of executed instruction
system.cpu.op_class::SimdFloatMultAcc               0                       # Class of executed instruction
system.cpu.op_class::SimdFloatSqrt                  0                       # Class of executed instruction
system.cpu.op_class::SimdReduceAdd                  0                       # Class of executed instruction
system.cpu.op_class::SimdReduceAlu                  0                       # Class of executed instruction
system.cpu.op_class::SimdReduceCmp                  0                       # Class of executed instruction
system.cpu.op_class::SimdFloatReduceAdd             0                       # Class of executed instruction
system.cpu.op_class::SimdFloatReduceCmp             0                       # Class of executed instruction
system.cpu.op_class::SimdAes                        0                       # Class of executed instruction
system.cpu.op_class::SimdAesMix                     0                       # Class of executed instruction
system.cpu.op_class::SimdSha1Hash                   0                       # Class of executed instruction
system.cpu.op_class::SimdSha1Hash2                  0                       # Class of executed instruction
system.cpu.op_class::SimdSha256Hash                 0                       # Class of executed instruction
system.cpu.op_class::SimdSha256Hash2                0                       # Class of executed instruction
system.cpu.op_class::SimdShaSigma2                  0                       # Class of executed instruction
system.cpu.op_class::SimdShaSigma3                  0                       # Class of executed instruction
system.cpu.op_class::SimdPredAlu                    0                       # Class of executed instruction
system.cpu.op_class::MemRead                        0                       # Class of executed instruction
system.cpu.op_class::MemWrite                       0                       # Class of executed instruction
system.cpu.op_class::FloatMemRead                   0                       # Class of executed instruction
system.cpu.op_class::FloatMemWrite                  0                       # Class of executed instruction
system.cpu.op_class::IprAccess                      0                       # Class of executed instruction
system.cpu.op_class::InstPrefetch                   0                       # Class of executed instruction
system.cpu.op_class::total                          0                       # Class of executed instruction
system.cpu.workload.numSyscalls                   328                       # Number of system calls
system.membus.snoop_filter.hit_multi_requests            0                       # Number of requests hitting in the snoop filter with multiple (>1) holders of the requested data.
system.membus.snoop_filter.hit_multi_snoops            0                       # Number of snoops hitting in the snoop filter with multiple (>1) holders of the requested data.
system.membus.snoop_filter.hit_single_requests      8793802                       # Number of requests hitting in the snoop filter with a single holder of the requested data.
system.membus.snoop_filter.hit_single_snoops            0                       # Number of snoops hitting in the snoop filter with a single holder of the requested data.
system.membus.snoop_filter.tot_requests      17587649                       # Total number of requests made to the snoop filter.
system.membus.snoop_filter.tot_snoops               0                       # Total number of snoops made to the snoop filter.
system.switch_cpus.Branches                  48888751                       # Number of branches fetched
system.switch_cpus.committedInsts           300000000                       # Number of instructions committed
system.switch_cpus.committedOps             509725009                       # Number of ops (including micro ops) committed
system.switch_cpus.dtb.rdAccesses            84205794                       # TLB accesses on read requests
system.switch_cpus.dtb.rdMisses                 83077                       # TLB misses on read requests
system.switch_cpus.dtb.wrAccesses            79169099                       # TLB accesses on write requests
system.switch_cpus.dtb.wrMisses                175472                       # TLB misses on write requests
system.switch_cpus.idle_fraction                    0                       # Percentage of idle cycles
system.switch_cpus.itb.rdAccesses                   0                       # TLB accesses on read requests
system.switch_cpus.itb.rdMisses                     0                       # TLB misses on read requests
system.switch_cpus.itb.wrAccesses           435077177                       # TLB accesses on write requests
system.switch_cpus.itb.wrMisses                    18                       # TLB misses on write requests
system.switch_cpus.not_idle_fraction                1                       # Percentage of non-idle cycles
system.switch_cpus.numCycles                644802186                       # number of cpu cycles simulated
system.switch_cpus.numWorkItemsCompleted            0                       # number of work items this cpu completed
system.switch_cpus.numWorkItemsStarted              0                       # number of work items this cpu started
system.switch_cpus.num_busy_cycles          644802186                       # Number of busy cycles
system.switch_cpus.num_cc_register_reads    256302342                       # number of times the CC registers were read
system.switch_cpus.num_cc_register_writes    116223598                       # number of times the CC registers were written
system.switch_cpus.num_conditional_control_insts     42500896                       # number of instructions that are conditional controls
system.switch_cpus.num_fp_alu_accesses      155530617                       # Number of float alu accesses
system.switch_cpus.num_fp_insts             155530617                       # number of float instructions
system.switch_cpus.num_fp_register_reads    249990274                       # number of times the floating registers were read
system.switch_cpus.num_fp_register_writes    102604010                       # number of times the floating registers were written
system.switch_cpus.num_func_calls             5255219                       # number of times a function call or return occured
system.switch_cpus.num_idle_cycles                  0                       # Number of idle cycles
system.switch_cpus.num_int_alu_accesses     442556581                       # Number of integer alu accesses
system.switch_cpus.num_int_insts            442556581                       # number of integer instructions
system.switch_cpus.num_int_register_reads    898029818                       # number of times the integer registers were read
system.switch_cpus.num_int_register_writes    279097887                       # number of times the integer registers were written
system.switch_cpus.num_load_insts            84205794                       # Number of load instructions
system.switch_cpus.num_mem_refs             163374893                       # number of memory refs
system.switch_cpus.num_store_insts           79169099                       # Number of store instructions
system.switch_cpus.num_vec_alu_accesses             0                       # Number of vector alu accesses
system.switch_cpus.num_vec_insts                    0                       # number of vector instructions
system.switch_cpus.num_vec_register_reads            0                       # number of times the vector registers were read
system.switch_cpus.num_vec_register_writes            0                       # number of times the vector registers were written
system.switch_cpus.op_class::No_OpClass          1440      0.00%      0.00% # Class of executed instruction
system.switch_cpus.op_class::IntAlu         283779076     55.66%     55.66% # Class of executed instruction
system.switch_cpus.op_class::IntMult                0      0.00%     55.66% # Class of executed instruction
system.switch_cpus.op_class::IntDiv                 0      0.00%     55.66% # Class of executed instruction
system.switch_cpus.op_class::FloatAdd               0      0.00%     55.66% # Class of executed instruction
system.switch_cpus.op_class::FloatCmp               0      0.00%     55.66% # Class of executed instruction
system.switch_cpus.op_class::FloatCvt               0      0.00%     55.66% # Class of executed instruction
system.switch_cpus.op_class::FloatMult              0      0.00%     55.66% # Class of executed instruction
system.switch_cpus.op_class::FloatMultAcc            0      0.00%     55.66% # Class of executed instruction
system.switch_cpus.op_class::FloatDiv               0      0.00%     55.66% # Class of executed instruction
system.switch_cpus.op_class::FloatMisc              0      0.00%     55.66% # Class of executed instruction
system.switch_cpus.op_class::FloatSqrt              0      0.00%     55.66% # Class of executed instruction
system.switch_cpus.op_class::SimdAdd                0      0.00%     55.66% # Class of executed instruction
system.switch_cpus.op_class::SimdAddAcc             0      0.00%     55.66% # Class of executed instruction
system.switch_cpus.op_class::SimdAlu                0      0.00%     55.66% # Class of executed instruction
system.switch_cpus.op_class::SimdCmp                0      0.00%     55.66% # Class of executed instruction
system.switch_cpus.op_class::SimdCvt                0      0.00%     55.66% # Class of executed instruction
system.switch_cpus.op_class::SimdMisc               0      0.00%     55.66% # Class of executed instruction
system.switch_cpus.op_class::SimdMult               0      0.00%     55.66% # Class of executed instruction
system.switch_cpus.op_class::SimdMultAcc            0      0.00%     55.66% # Class of executed instruction
system.switch_cpus.op_class::SimdShift              0      0.00%     55.66% # Class of executed instruction
system.switch_cpus.op_class::SimdShiftAcc            0      0.00%     55.66% # Class of executed instruction
system.switch_cpus.op_class::SimdDiv                0      0.00%     55.66% # Class of executed instruction
system.switch_cpus.op_class::SimdSqrt               0      0.00%     55.66% # Class of executed instruction
system.switch_cpus.op_class::SimdFloatAdd     52892371     10.37%     66.04% # Class of executed instruction
system.switch_cpus.op_class::SimdFloatAlu            0      0.00%     66.04% # Class of executed instruction
system.switch_cpus.op_class::SimdFloatCmp      4448324      0.87%     66.91% # Class of executed instruction
system.switch_cpus.op_class::SimdFloatCvt            0      0.00%     66.91% # Class of executed instruction
system.switch_cpus.op_class::SimdFloatDiv      1063328      0.21%     67.12% # Class of executed instruction
system.switch_cpus.op_class::SimdFloatMisc            0      0.00%     67.12% # Class of executed instruction
system.switch_cpus.op_class::SimdFloatMult      4253312      0.83%     67.95% # Class of executed instruction
system.switch_cpus.op_class::SimdFloatMultAcc            0      0.00%     67.95% # Class of executed instruction
system.switch_cpus.op_class::SimdFloatSqrt            0      0.00%     67.95% # Class of executed instruction
system.switch_cpus.op_class::SimdReduceAdd            0      0.00%     67.95% # Class of executed instruction
system.switch_cpus.op_class::SimdReduceAlu            0      0.00%     67.95% # Class of executed instruction
system.switch_cpus.op_class::SimdReduceCmp            0      0.00%     67.95% # Class of executed instruction
system.switch_cpus.op_class::SimdFloatReduceAdd            0      0.00%     67.95% # Class of executed instruction
system.switch_cpus.op_class::SimdFloatReduceCmp            0      0.00%     67.95% # Class of executed instruction
system.switch_cpus.op_class::SimdAes                0      0.00%     67.95% # Class of executed instruction
system.switch_cpus.op_class::SimdAesMix             0      0.00%     67.95% # Class of executed instruction
system.switch_cpus.op_class::SimdSha1Hash            0      0.00%     67.95% # Class of executed instruction
system.switch_cpus.op_class::SimdSha1Hash2            0      0.00%     67.95% # Class of executed instruction
system.switch_cpus.op_class::SimdSha256Hash            0      0.00%     67.95% # Class of executed instruction
system.switch_cpus.op_class::SimdSha256Hash2            0      0.00%     67.95% # Class of executed instruction
system.switch_cpus.op_class::SimdShaSigma2            0      0.00%     67.95% # Class of executed instruction
system.switch_cpus.op_class::SimdShaSigma3            0      0.00%     67.95% # Class of executed instruction
system.switch_cpus.op_class::SimdPredAlu            0      0.00%     67.95% # Class of executed instruction
system.switch_cpus.op_class::MemRead         48804950      9.57%     77.53% # Class of executed instruction
system.switch_cpus.op_class::MemWrite        26242492      5.15%     82.67% # Class of executed instruction
system.switch_cpus.op_class::FloatMemRead     35400844      6.94%     89.62% # Class of executed instruction
system.switch_cpus.op_class::FloatMemWrite     52926607     10.38%    100.00% # Class of executed instruction
system.switch_cpus.op_class::IprAccess              0      0.00%    100.00% # Class of executed instruction
system.switch_cpus.op_class::InstPrefetch            0      0.00%    100.00% # Class of executed instruction
system.switch_cpus.op_class::total          509812744                       # Class of executed instruction
system.tol2bus.snoop_filter.hit_multi_requests            0                       # Number of requests hitting in the snoop filter with multiple (>1) holders of the requested data.
system.tol2bus.snoop_filter.hit_multi_snoops            0                       # Number of snoops hitting in the snoop filter with multiple (>1) holders of the requested data.
system.tol2bus.snoop_filter.hit_single_requests      8793797                       # Number of requests hitting in the snoop filter with a single holder of the requested data.
system.tol2bus.snoop_filter.hit_single_snoops      8793837                       # Number of snoops hitting in the snoop filter with a single holder of the requested data.
system.tol2bus.snoop_filter.tot_requests     17587647                       # Total number of requests made to the snoop filter.
system.tol2bus.snoop_filter.tot_snoops        8793837                       # Total number of snoops made to the snoop filter.
system.membus.trans_dist::ReadResp            3178746                       # Transaction distribution
system.membus.trans_dist::WritebackDirty      5881326                       # Transaction distribution
system.membus.trans_dist::CleanEvict          2912476                       # Transaction distribution
system.membus.trans_dist::ReadExReq           5615101                       # Transaction distribution
system.membus.trans_dist::ReadExResp          5615101                       # Transaction distribution
system.membus.trans_dist::ReadSharedReq       3178746                       # Transaction distribution
system.membus.pkt_count_system.l2.mem_side::system.mem_ctrls.port     26381496                       # Packet count per connected master and slave (bytes)
system.membus.pkt_count_system.l2.mem_side::total     26381496                       # Packet count per connected master and slave (bytes)
system.membus.pkt_count::total               26381496                       # Packet count per connected master and slave (bytes)
system.membus.pkt_size_system.l2.mem_side::system.mem_ctrls.port    939211072                       # Cumulative packet size per connected master and slave (bytes)
system.membus.pkt_size_system.l2.mem_side::total    939211072                       # Cumulative packet size per connected master and slave (bytes)
system.membus.pkt_size::total               939211072                       # Cumulative packet size per connected master and slave (bytes)
system.membus.snoops                                0                       # Total snoops (count)
system.membus.snoopTraffic                          0                       # Total snoop traffic (bytes)
system.membus.snoop_fanout::samples           8793847                       # Request fanout histogram
system.membus.snoop_fanout::mean                    0                       # Request fanout histogram
system.membus.snoop_fanout::stdev                   0                       # Request fanout histogram
system.membus.snoop_fanout::underflows              0      0.00%      0.00% # Request fanout histogram
system.membus.snoop_fanout::0                 8793847    100.00%    100.00% # Request fanout histogram
system.membus.snoop_fanout::1                       0      0.00%    100.00% # Request fanout histogram
system.membus.snoop_fanout::overflows               0      0.00%    100.00% # Request fanout histogram
system.membus.snoop_fanout::min_value               0                       # Request fanout histogram
system.membus.snoop_fanout::max_value               0                       # Request fanout histogram
system.membus.snoop_fanout::total             8793847                       # Request fanout histogram
system.membus.power_state.pwrStateResidencyTicks::UNDEFINED 331118901000                       # Cumulative time (in ticks) in various power states
system.switch_cpus.dtb.walker.power_state.pwrStateResidencyTicks::UNDEFINED 331118901000                       # Cumulative time (in ticks) in various power states
system.switch_cpus.itb.walker.power_state.pwrStateResidencyTicks::UNDEFINED 331118901000                       # Cumulative time (in ticks) in various power states
system.switch_cpus.power_state.numTransitions            1                       # Number of power state transitions
system.switch_cpus.power_state.pwrStateResidencyTicks::OFF 331118901000                       # Cumulative time (in ticks) in various power states
system.tol2bus.trans_dist::ReadResp           3178749                       # Transaction distribution
system.tol2bus.trans_dist::WritebackDirty      5881318                       # Transaction distribution
system.tol2bus.trans_dist::WritebackClean           84                       # Transaction distribution
system.tol2bus.trans_dist::CleanEvict         2912395                       # Transaction distribution
system.tol2bus.trans_dist::ReadExReq          5615101                       # Transaction distribution
system.tol2bus.trans_dist::ReadExResp         5615101                       # Transaction distribution
system.tol2bus.trans_dist::ReadCleanReq           137                       # Transaction distribution
system.tol2bus.trans_dist::ReadSharedReq      3178612                       # Transaction distribution
system.tol2bus.pkt_count_system.cpu.icache.mem_side::system.l2.cpu_side          358                       # Packet count per connected master and slave (bytes)
system.tol2bus.pkt_count_system.cpu.dcache.mem_side::system.l2.cpu_side     26381139                       # Packet count per connected master and slave (bytes)
system.tol2bus.pkt_count::total              26381497                       # Packet count per connected master and slave (bytes)
system.tol2bus.pkt_size_system.cpu.icache.mem_side::system.l2.cpu_side        14144                       # Cumulative packet size per connected master and slave (bytes)
system.tol2bus.pkt_size_system.cpu.dcache.mem_side::system.l2.cpu_side    939201984                       # Cumulative packet size per connected master and slave (bytes)
system.tol2bus.pkt_size::total              939216128                       # Cumulative packet size per connected master and slave (bytes)
system.tol2bus.snoops                        14675244                       # Total snoops (count)
system.tol2bus.snoopTraffic                 376404864                       # Total snoop traffic (bytes)
system.tol2bus.snoop_fanout::samples         23469094                       # Request fanout histogram
system.tol2bus.snoop_fanout::mean            0.374699                       # Request fanout histogram
system.tol2bus.snoop_fanout::stdev           0.484045                       # Request fanout histogram
system.tol2bus.snoop_fanout::underflows             0      0.00%      0.00% # Request fanout histogram
system.tol2bus.snoop_fanout::0               14675257     62.53%     62.53% # Request fanout histogram
system.tol2bus.snoop_fanout::1                8793837     37.47%    100.00% # Request fanout histogram
system.tol2bus.snoop_fanout::2                      0      0.00%    100.00% # Request fanout histogram
system.tol2bus.snoop_fanout::3                      0      0.00%    100.00% # Request fanout histogram
system.tol2bus.snoop_fanout::4                      0      0.00%    100.00% # Request fanout histogram
system.tol2bus.snoop_fanout::overflows              0      0.00%    100.00% # Request fanout histogram
system.tol2bus.snoop_fanout::min_value              0                       # Request fanout histogram
system.tol2bus.snoop_fanout::max_value              1                       # Request fanout histogram
system.tol2bus.snoop_fanout::total           23469094                       # Request fanout histogram
system.tol2bus.power_state.pwrStateResidencyTicks::UNDEFINED 331118901000                       # Cumulative time (in ticks) in various power states
system.voltage_domain.voltage                       1                       # Voltage in Volts
system.clk_domain.clock                          1000                       # Clock period in ticks
system.l2.demand_hits::.switch_cpus.inst            3                       # number of demand (read+write) hits
system.l2.demand_hits::total                        3                       # number of demand (read+write) hits
system.l2.overall_hits::.switch_cpus.inst            3                       # number of overall hits
system.l2.overall_hits::total                       3                       # number of overall hits
system.l2.demand_misses::.switch_cpus.inst          134                       # number of demand (read+write) misses
system.l2.demand_misses::.switch_cpus.data      8793713                       # number of demand (read+write) misses
system.l2.demand_misses::total                8793847                       # number of demand (read+write) misses
system.l2.overall_misses::.switch_cpus.inst          134                       # number of overall misses
system.l2.overall_misses::.switch_cpus.data      8793713                       # number of overall misses
system.l2.overall_misses::total               8793847                       # number of overall misses
system.l2.demand_accesses::.switch_cpus.inst          137                       # number of demand (read+write) accesses
system.l2.demand_accesses::.switch_cpus.data      8793713                       # number of demand (read+write) accesses
system.l2.demand_accesses::total              8793850                       # number of demand (read+write) accesses
system.l2.overall_accesses::.switch_cpus.inst          137                       # number of overall (read+write) accesses
system.l2.overall_accesses::.switch_cpus.data      8793713                       # number of overall (read+write) accesses
system.l2.overall_accesses::total             8793850                       # number of overall (read+write) accesses
system.l2.demand_miss_rate::.switch_cpus.inst     0.978102                       # miss rate for demand accesses
system.l2.demand_miss_rate::.switch_cpus.data            1                       # miss rate for demand accesses
system.l2.demand_miss_rate::total            1.000000                       # miss rate for demand accesses
system.l2.overall_miss_rate::.switch_cpus.inst     0.978102                       # miss rate for overall accesses
system.l2.overall_miss_rate::.switch_cpus.data            1                       # miss rate for overall accesses
system.l2.overall_miss_rate::total           1.000000                       # miss rate for overall accesses
system.l2.blocked_cycles::no_mshrs                  0                       # number of cycles access was blocked
system.l2.blocked_cycles::no_targets                0                       # number of cycles access was blocked
system.l2.blocked::no_mshrs                         0                       # number of cycles access was blocked
system.l2.blocked::no_targets                       0                       # number of cycles access was blocked
system.l2.avg_blocked_cycles::no_mshrs            nan                       # average number of cycles each access was blocked
system.l2.avg_blocked_cycles::no_targets          nan                       # average number of cycles each access was blocked
system.l2.writebacks::.writebacks             5881326                       # number of writebacks
system.l2.writebacks::total                   5881326                       # number of writebacks
system.l2.replacements                       14675244                       # number of replacements
system.l2.WritebackDirty_hits::.writebacks      5881318                       # number of WritebackDirty hits
system.l2.WritebackDirty_hits::total          5881318                       # number of WritebackDirty hits
system.l2.WritebackDirty_accesses::.writebacks      5881318                       # number of WritebackDirty accesses(hits+misses)
system.l2.WritebackDirty_accesses::total      5881318                       # number of WritebackDirty accesses(hits+misses)
system.l2.WritebackClean_hits::.writebacks           84                       # number of WritebackClean hits
system.l2.WritebackClean_hits::total               84                       # number of WritebackClean hits
system.l2.WritebackClean_accesses::.writebacks           84                       # number of WritebackClean accesses(hits+misses)
system.l2.WritebackClean_accesses::total           84                       # number of WritebackClean accesses(hits+misses)
system.l2.ReadExReq_misses::.switch_cpus.data      5615101                       # number of ReadExReq misses
system.l2.ReadExReq_misses::total             5615101                       # number of ReadExReq misses
system.l2.ReadExReq_accesses::.switch_cpus.data      5615101                       # number of ReadExReq accesses(hits+misses)
system.l2.ReadExReq_accesses::total           5615101                       # number of ReadExReq accesses(hits+misses)
system.l2.ReadExReq_miss_rate::.switch_cpus.data            1                       # miss rate for ReadExReq accesses
system.l2.ReadExReq_miss_rate::total                1                       # miss rate for ReadExReq accesses
system.l2.ReadCleanReq_hits::.switch_cpus.inst            3                       # number of ReadCleanReq hits
system.l2.ReadCleanReq_hits::total                  3                       # number of ReadCleanReq hits
system.l2.ReadCleanReq_misses::.switch_cpus.inst          134                       # number of ReadCleanReq misses
system.l2.ReadCleanReq_misses::total              134                       # number of ReadCleanReq misses
system.l2.ReadCleanReq_accesses::.switch_cpus.inst          137                       # number of ReadCleanReq accesses(hits+misses)
system.l2.ReadCleanReq_accesses::total            137                       # number of ReadCleanReq accesses(hits+misses)
system.l2.ReadCleanReq_miss_rate::.switch_cpus.inst     0.978102                       # miss rate for ReadCleanReq accesses
system.l2.ReadCleanReq_miss_rate::total      0.978102                       # miss rate for ReadCleanReq accesses
system.l2.ReadSharedReq_misses::.switch_cpus.data      3178612                       # number of ReadSharedReq misses
system.l2.ReadSharedReq_misses::total         3178612                       # number of ReadSharedReq misses
system.l2.ReadSharedReq_accesses::.switch_cpus.data      3178612                       # number of ReadSharedReq accesses(hits+misses)
system.l2.ReadSharedReq_accesses::total       3178612                       # number of ReadSharedReq accesses(hits+misses)
system.l2.ReadSharedReq_miss_rate::.switch_cpus.data            1                       # miss rate for ReadSharedReq accesses
system.l2.ReadSharedReq_miss_rate::total            1                       # miss rate for ReadSharedReq accesses
system.l2.power_state.pwrStateResidencyTicks::UNDEFINED 331118901000                       # Cumulative time (in ticks) in various power states
system.l2.tags.tagsinuse                           16                       # Cycle average of tags in use
system.l2.tags.total_refs                    14675268                       # Total number of references to valid blocks.
system.l2.tags.sampled_refs                  14675260                       # Sample count of references to valid blocks.
system.l2.tags.avg_refs                      1.000001                       # Average number of references to valid blocks.
system.l2.tags.warmup_cycle                         0                       # Cycle when the warmup percentage was hit.
system.l2.tags.occ_blocks::.writebacks       5.525531                       # Average occupied blocks per requestor
system.l2.tags.occ_blocks::.cpu.data         0.000001                       # Average occupied blocks per requestor
system.l2.tags.occ_blocks::.switch_cpus.inst     0.037795                       # Average occupied blocks per requestor
system.l2.tags.occ_blocks::.switch_cpus.data    10.436674                       # Average occupied blocks per requestor
system.l2.tags.occ_percent::.writebacks      0.345346                       # Average percentage of cache occupancy
system.l2.tags.occ_percent::.cpu.data        0.000000                       # Average percentage of cache occupancy
system.l2.tags.occ_percent::.switch_cpus.inst     0.002362                       # Average percentage of cache occupancy
system.l2.tags.occ_percent::.switch_cpus.data     0.652292                       # Average percentage of cache occupancy
system.l2.tags.occ_percent::total                   1                       # Average percentage of cache occupancy
system.l2.tags.occ_task_id_blocks::1024            16                       # Occupied blocks per task id
system.l2.tags.age_task_id_blocks_1024::0           16                       # Occupied blocks per task id
system.l2.tags.occ_task_id_percent::1024            1                       # Percentage of cache occupancy per task id
system.l2.tags.tag_accesses                 155376420                       # Number of tag accesses
system.l2.tags.data_accesses                155376420                       # Number of data accesses
system.l2.tags.power_state.pwrStateResidencyTicks::UNDEFINED 331118901000                       # Cumulative time (in ticks) in various power states
system.cpu_voltage_domain.voltage                   1                       # Voltage in Volts
system.mem_ctrls.bytes_read::.switch_cpus.inst         8576                       # Number of bytes read from this memory
system.mem_ctrls.bytes_read::.switch_cpus.data    562797632                       # Number of bytes read from this memory
system.mem_ctrls.bytes_read::total          562806208                       # Number of bytes read from this memory
system.mem_ctrls.bytes_inst_read::.switch_cpus.inst         8576                       # Number of instructions bytes read from this memory
system.mem_ctrls.bytes_inst_read::total          8576                       # Number of instructions bytes read from this memory
system.mem_ctrls.bytes_written::.writebacks    376404864                       # Number of bytes written to this memory
system.mem_ctrls.bytes_written::total       376404864                       # Number of bytes written to this memory
system.mem_ctrls.num_reads::.switch_cpus.inst          134                       # Number of read requests responded to by this memory
system.mem_ctrls.num_reads::.switch_cpus.data      8793713                       # Number of read requests responded to by this memory
system.mem_ctrls.num_reads::total             8793847                       # Number of read requests responded to by this memory
system.mem_ctrls.num_writes::.writebacks      5881326                       # Number of write requests responded to by this memory
system.mem_ctrls.num_writes::total            5881326                       # Number of write requests responded to by this memory
system.mem_ctrls.bw_read::.switch_cpus.inst        26600                       # Total read bandwidth from this memory (bytes/s)
system.mem_ctrls.bw_read::.switch_cpus.data   1745644305                       # Total read bandwidth from this memory (bytes/s)
system.mem_ctrls.bw_read::total            1745670906                       # Total read bandwidth from this memory (bytes/s)
system.mem_ctrls.bw_inst_read::.switch_cpus.inst        26600                       # Instruction read bandwidth from this memory (bytes/s)
system.mem_ctrls.bw_inst_read::total            26600                       # Instruction read bandwidth from this memory (bytes/s)
system.mem_ctrls.bw_write::.writebacks     1167504925                       # Write bandwidth from this memory (bytes/s)
system.mem_ctrls.bw_write::total           1167504925                       # Write bandwidth from this memory (bytes/s)
system.mem_ctrls.bw_total::.writebacks     1167504925                       # Total bandwidth to/from this memory (bytes/s)
system.mem_ctrls.bw_total::.switch_cpus.inst        26600                       # Total bandwidth to/from this memory (bytes/s)
system.mem_ctrls.bw_total::.switch_cpus.data   1745644305                       # Total bandwidth to/from this memory (bytes/s)
system.mem_ctrls.bw_total::total           2913175831                       # Total bandwidth to/from this memory (bytes/s)
system.mem_ctrls.priorityMinLatency      0.000000000000                       # per QoS priority minimum request to response latency (s)
system.mem_ctrls.priorityMaxLatency      0.000000000000                       # per QoS priority maximum request to response latency (s)
system.mem_ctrls.numReadWriteTurnArounds            0                       # Number of turnarounds from READ to WRITE
system.mem_ctrls.numWriteReadTurnArounds            0                       # Number of turnarounds from WRITE to READ
system.mem_ctrls.numStayReadState                   0                       # Number of times bus staying in READ state
system.mem_ctrls.numStayWriteState                  0                       # Number of times bus staying in WRITE state
system.mem_ctrls.readReqs                           0                       # Number of read requests accepted
system.mem_ctrls.writeReqs                          0                       # Number of write requests accepted
system.mem_ctrls.readBursts                         0                       # Number of DRAM read bursts, including those serviced by the write queue
system.mem_ctrls.writeBursts                        0                       # Number of DRAM write bursts, including those merged in the write queue
system.mem_ctrls.servicedByWrQ                      0                       # Number of DRAM read bursts serviced by the write queue
system.mem_ctrls.mergedWrBursts                     0                       # Number of DRAM write bursts merged with an existing one
system.mem_ctrls.neitherReadNorWriteReqs            0                       # Number of requests that are neither read nor write
system.mem_ctrls.perBankRdBursts::0                 0                       # Per bank write bursts
system.mem_ctrls.perBankRdBursts::1                 0                       # Per bank write bursts
system.mem_ctrls.perBankRdBursts::2                 0                       # Per bank write bursts
system.mem_ctrls.perBankRdBursts::3                 0                       # Per bank write bursts
system.mem_ctrls.perBankRdBursts::4                 0                       # Per bank write bursts
system.mem_ctrls.perBankRdBursts::5                 0                       # Per bank write bursts
system.mem_ctrls.perBankRdBursts::6                 0                       # Per bank write bursts
system.mem_ctrls.perBankRdBursts::7                 0                       # Per bank write bursts
system.mem_ctrls.perBankRdBursts::8                 0                       # Per bank write bursts
system.mem_ctrls.perBankRdBursts::9                 0                       # Per bank write bursts
system.mem_ctrls.perBankRdBursts::10                0                       # Per bank write bursts
system.mem_ctrls.perBankRdBursts::11                0                       # Per bank write bursts
system.mem_ctrls.perBankRdBursts::12                0                       # Per bank write bursts
system.mem_ctrls.perBankRdBursts::13                0                       # Per bank write bursts
system.mem_ctrls.perBankRdBursts::14                0                       # Per bank write bursts
system.mem_ctrls.perBankRdBursts::15                0                       # Per bank write bursts
system.mem_ctrls.perBankWrBursts::0                 0                       # Per bank write bursts
system.mem_ctrls.perBankWrBursts::1                 0                       # Per bank write bursts
system.mem_ctrls.perBankWrBursts::2                 0                       # Per bank write bursts
system.mem_ctrls.perBankWrBursts::3                 0                       # Per bank write bursts
system.mem_ctrls.perBankWrBursts::4                 0                       # Per bank write bursts
system.mem_ctrls.perBankWrBursts::5                 0                       # Per bank write bursts
system.mem_ctrls.perBankWrBursts::6                 0                       # Per bank write bursts
system.mem_ctrls.perBankWrBursts::7                 0                       # Per bank write bursts
system.mem_ctrls.perBankWrBursts::8                 0                       # Per bank write bursts
system.mem_ctrls.perBankWrBursts::9                 0                       # Per bank write bursts
system.mem_ctrls.perBankWrBursts::10                0                       # Per bank write bursts
system.mem_ctrls.perBankWrBursts::11                0                       # Per bank write bursts
system.mem_ctrls.perBankWrBursts::12                0                       # Per bank write bursts
system.mem_ctrls.perBankWrBursts::13                0                       # Per bank write bursts
system.mem_ctrls.perBankWrBursts::14                0                       # Per bank write bursts
system.mem_ctrls.perBankWrBursts::15                0                       # Per bank write bursts
system.mem_ctrls.avgRdQLen                       0.00                       # Average read queue length when enqueuing
system.mem_ctrls.avgWrQLen                       0.00                       # Average write queue length when enqueuing
system.mem_ctrls.totQLat                            0                       # Total ticks spent queuing
system.mem_ctrls.totBusLat                          0                       # Total ticks spent in databus transfers
system.mem_ctrls.totMemAccLat                       0                       # Total ticks spent from burst creation until serviced by the DRAM
system.mem_ctrls.avgQLat                          nan                       # Average queueing delay per DRAM burst
system.mem_ctrls.avgBusLat                        nan                       # Average bus latency per DRAM burst
system.mem_ctrls.avgMemAccLat                     nan                       # Average memory access latency per DRAM burst
system.mem_ctrls.numRdRetry                         0                       # Number of times read queue was full causing retry
system.mem_ctrls.numWrRetry                         0                       # Number of times write queue was full causing retry
system.mem_ctrls.readRowHits                        0                       # Number of row buffer hits during reads
system.mem_ctrls.writeRowHits                       0                       # Number of row buffer hits during writes
system.mem_ctrls.readRowHitRate                   nan                       # Row buffer hit rate for reads
system.mem_ctrls.writeRowHitRate                  nan                       # Row buffer hit rate for writes
system.mem_ctrls.readPktSize::0                     0                       # Read request sizes (log2)
system.mem_ctrls.readPktSize::1                     0                       # Read request sizes (log2)
system.mem_ctrls.readPktSize::2                     0                       # Read request sizes (log2)
system.mem_ctrls.readPktSize::3                     0                       # Read request sizes (log2)
system.mem_ctrls.readPktSize::4                     0                       # Read request sizes (log2)
system.mem_ctrls.readPktSize::5                     0                       # Read request sizes (log2)
system.mem_ctrls.readPktSize::6                     0                       # Read request sizes (log2)
system.mem_ctrls.writePktSize::0                    0                       # Write request sizes (log2)
system.mem_ctrls.writePktSize::1                    0                       # Write request sizes (log2)
system.mem_ctrls.writePktSize::2                    0                       # Write request sizes (log2)
system.mem_ctrls.writePktSize::3                    0                       # Write request sizes (log2)
system.mem_ctrls.writePktSize::4                    0                       # Write request sizes (log2)
system.mem_ctrls.writePktSize::5                    0                       # Write request sizes (log2)
system.mem_ctrls.writePktSize::6                    0                       # Write request sizes (log2)
system.mem_ctrls.rdQLenPdf::0                       0                       # What read queue length does an incoming req see
system.mem_ctrls.rdQLenPdf::1                       0                       # What read queue length does an incoming req see
system.mem_ctrls.rdQLenPdf::2                       0                       # What read queue length does an incoming req see
system.mem_ctrls.rdQLenPdf::3                       0                       # What read queue length does an incoming req see
system.mem_ctrls.rdQLenPdf::4                       0                       # What read queue length does an incoming req see
system.mem_ctrls.rdQLenPdf::5                       0                       # What read queue length does an incoming req see
system.mem_ctrls.rdQLenPdf::6                       0                       # What read queue length does an incoming req see
system.mem_ctrls.rdQLenPdf::7                       0                       # What read queue length does an incoming req see
system.mem_ctrls.rdQLenPdf::8                       0                       # What read queue length does an incoming req see
system.mem_ctrls.rdQLenPdf::9                       0                       # What read queue length does an incoming req see
system.mem_ctrls.rdQLenPdf::10                      0                       # What read queue length does an incoming req see
system.mem_ctrls.rdQLenPdf::11                      0                       # What read queue length does an incoming req see
system.mem_ctrls.rdQLenPdf::12                      0                       # What read queue length does an incoming req see
system.mem_ctrls.rdQLenPdf::13                      0                       # What read queue length does an incoming req see
system.mem_ctrls.rdQLenPdf::14                      0                       # What read queue length does an incoming req see
system.mem_ctrls.rdQLenPdf::15                      0                       # What read queue length does an incoming req see
system.mem_ctrls.rdQLenPdf::16                      0                       # What read queue length does an incoming req see
system.mem_ctrls.rdQLenPdf::17                      0                       # What read queue length does an incoming req see
system.mem_ctrls.rdQLenPdf::18                      0                       # What read queue length does an incoming req see
system.mem_ctrls.rdQLenPdf::19                      0                       # What read queue length does an incoming req see
system.mem_ctrls.rdQLenPdf::20                      0                       # What read queue length does an incoming req see
system.mem_ctrls.rdQLenPdf::21                      0                       # What read queue length does an incoming req see
system.mem_ctrls.rdQLenPdf::22                      0                       # What read queue length does an incoming req see
system.mem_ctrls.rdQLenPdf::23                      0                       # What read queue length does an incoming req see
system.mem_ctrls.rdQLenPdf::24                      0                       # What read queue length does an incoming req see
system.mem_ctrls.rdQLenPdf::25                      0                       # What read queue length does an incoming req see
system.mem_ctrls.rdQLenPdf::26                      0                       # What read queue length does an incoming req see
system.mem_ctrls.rdQLenPdf::27                      0                       # What read queue length does an incoming req see
system.mem_ctrls.rdQLenPdf::28                      0                       # What read queue length does an incoming req see
system.mem_ctrls.rdQLenPdf::29                      0                       # What read queue length does an incoming req see
system.mem_ctrls.rdQLenPdf::30                      0                       # What read queue length does an incoming req see
system.mem_ctrls.rdQLenPdf::31                      0                       # What read queue length does an incoming req see
system.mem_ctrls.wrQLenPdf::0                       0                       # What write queue length does an incoming req see
system.mem_ctrls.wrQLenPdf::1                       0                       # What write queue length does an incoming req see
system.mem_ctrls.wrQLenPdf::2                       0                       # What write queue length does an incoming req see
system.mem_ctrls.wrQLenPdf::3                       0                       # What write queue length does an incoming req see
system.mem_ctrls.wrQLenPdf::4                       0                       # What write queue length does an incoming req see
system.mem_ctrls.wrQLenPdf::5                       0                       # What write queue length does an incoming req see
system.mem_ctrls.wrQLenPdf::6                       0                       # What write queue length does an incoming req see
system.mem_ctrls.wrQLenPdf::7                       0                       # What write queue length does an incoming req see
system.mem_ctrls.wrQLenPdf::8                       0                       # What write queue length does an incoming req see
system.mem_ctrls.wrQLenPdf::9                       0                       # What write queue length does an incoming req see
system.mem_ctrls.wrQLenPdf::10                      0                       # What write queue length does an incoming req see
system.mem_ctrls.wrQLenPdf::11                      0                       # What write queue length does an incoming req see
system.mem_ctrls.wrQLenPdf::12                      0                       # What write queue length does an incoming req see
system.mem_ctrls.wrQLenPdf::13                      0                       # What write queue length does an incoming req see
system.mem_ctrls.wrQLenPdf::14                      0                       # What write queue length does an incoming req see
system.mem_ctrls.wrQLenPdf::15                      0                       # What write queue length does an incoming req see
system.mem_ctrls.wrQLenPdf::16                      0                       # What write queue length does an incoming req see
system.mem_ctrls.wrQLenPdf::17                      0                       # What write queue length does an incoming req see
system.mem_ctrls.wrQLenPdf::18                      0                       # What write queue length does an incoming req see
system.mem_ctrls.wrQLenPdf::19                      0                       # What write queue length does an incoming req see
system.mem_ctrls.wrQLenPdf::20                      0                       # What write queue length does an incoming req see
system.mem_ctrls.wrQLenPdf::21                      0                       # What write queue length does an incoming req see
system.mem_ctrls.wrQLenPdf::22                      0                       # What write queue length does an incoming req see
system.mem_ctrls.wrQLenPdf::23                      0                       # What write queue length does an incoming req see
system.mem_ctrls.wrQLenPdf::24                      0                       # What write queue length does an incoming req see
system.mem_ctrls.wrQLenPdf::25                      0                       # What write queue length does an incoming req see
system.mem_ctrls.wrQLenPdf::26                      0                       # What write queue length does an incoming req see
system.mem_ctrls.wrQLenPdf::27                      0                       # What write queue length does an incoming req see
system.mem_ctrls.wrQLenPdf::28                      0                       # What write queue length does an incoming req see
system.mem_ctrls.wrQLenPdf::29                      0                       # What write queue length does an incoming req see
system.mem_ctrls.wrQLenPdf::30                      0                       # What write queue length does an incoming req see
system.mem_ctrls.wrQLenPdf::31                      0                       # What write queue length does an incoming req see
system.mem_ctrls.wrQLenPdf::32                      0                       # What write queue length does an incoming req see
system.mem_ctrls.wrQLenPdf::33                      0                       # What write queue length does an incoming req see
system.mem_ctrls.wrQLenPdf::34                      0                       # What write queue length does an incoming req see
system.mem_ctrls.wrQLenPdf::35                      0                       # What write queue length does an incoming req see
system.mem_ctrls.wrQLenPdf::36                      0                       # What write queue length does an incoming req see
system.mem_ctrls.wrQLenPdf::37                      0                       # What write queue length does an incoming req see
system.mem_ctrls.wrQLenPdf::38                      0                       # What write queue length does an incoming req see
system.mem_ctrls.wrQLenPdf::39                      0                       # What write queue length does an incoming req see
system.mem_ctrls.wrQLenPdf::40                      0                       # What write queue length does an incoming req see
system.mem_ctrls.wrQLenPdf::41                      0                       # What write queue length does an incoming req see
system.mem_ctrls.wrQLenPdf::42                      0                       # What write queue length does an incoming req see
system.mem_ctrls.wrQLenPdf::43                      0                       # What write queue length does an incoming req see
system.mem_ctrls.wrQLenPdf::44                      0                       # What write queue length does an incoming req see
system.mem_ctrls.wrQLenPdf::45                      0                       # What write queue length does an incoming req see
system.mem_ctrls.wrQLenPdf::46                      0                       # What write queue length does an incoming req see
system.mem_ctrls.wrQLenPdf::47                      0                       # What write queue length does an incoming req see
system.mem_ctrls.wrQLenPdf::48                      0                       # What write queue length does an incoming req see
system.mem_ctrls.wrQLenPdf::49                      0                       # What write queue length does an incoming req see
system.mem_ctrls.wrQLenPdf::50                      0                       # What write queue length does an incoming req see
system.mem_ctrls.wrQLenPdf::51                      0                       # What write queue length does an incoming req see
system.mem_ctrls.wrQLenPdf::52                      0                       # What write queue length does an incoming req see
system.mem_ctrls.wrQLenPdf::53                      0                       # What write queue length does an incoming req see
system.mem_ctrls.wrQLenPdf::54                      0                       # What write queue length does an incoming req see
system.mem_ctrls.wrQLenPdf::55                      0                       # What write queue length does an incoming req see
system.mem_ctrls.wrQLenPdf::56                      0                       # What write queue length does an incoming req see
system.mem_ctrls.wrQLenPdf::57                      0                       # What write queue length does an incoming req see
system.mem_ctrls.wrQLenPdf::58                      0                       # What write queue length does an incoming req see
system.mem_ctrls.wrQLenPdf::59                      0                       # What write queue length does an incoming req see
system.mem_ctrls.wrQLenPdf::60                      0                       # What write queue length does an incoming req see
system.mem_ctrls.wrQLenPdf::61                      0                       # What write queue length does an incoming req see
system.mem_ctrls.wrQLenPdf::62                      0                       # What write queue length does an incoming req see
system.mem_ctrls.wrQLenPdf::63                      0                       # What write queue length does an incoming req see
system.mem_ctrls.bytesReadDRAM                      0                       # Total number of bytes read from DRAM
system.mem_ctrls.bytesReadWrQ                       0                       # Total number of bytes read from write queue
system.mem_ctrls.bytesWritten                       0                       # Total number of bytes written to DRAM
system.mem_ctrls.bytesReadSys                       0                       # Total read bytes from the system interface side
system.mem_ctrls.bytesWrittenSys                    0                       # Total written bytes from the system interface side
system.mem_ctrls.avgRdBW                         0.00                       # Average DRAM read bandwidth in MiByte/s
system.mem_ctrls.avgWrBW                         0.00                       # Average achieved write bandwidth in MiByte/s
system.mem_ctrls.avgRdBWSys                      0.00                       # Average system read bandwidth in MiByte/s
system.mem_ctrls.avgWrBWSys                      0.00                       # Average system write bandwidth in MiByte/s
system.mem_ctrls.peakBW                      12800.00                       # Theoretical peak bandwidth in MiByte/s
system.mem_ctrls.busUtil                         0.00                       # Data bus utilization in percentage
system.mem_ctrls.busUtilRead                     0.00                       # Data bus utilization in percentage for reads
system.mem_ctrls.busUtilWrite                    0.00                       # Data bus utilization in percentage for writes
system.mem_ctrls.totGap                             0                       # Total gap between requests
system.mem_ctrls.avgGap                           nan                       # Average gap between requests
system.mem_ctrls.pageHitRate                      nan                       # Row buffer hit rate, read and write combined
system.mem_ctrls.rank1.actEnergy                    0                       # Energy for activate commands per rank (pJ)
system.mem_ctrls.rank1.preEnergy                    0                       # Energy for precharge commands per rank (pJ)
system.mem_ctrls.rank1.readEnergy                   0                       # Energy for read commands per rank (pJ)
system.mem_ctrls.rank1.writeEnergy                  0                       # Energy for write commands per rank (pJ)
system.mem_ctrls.rank1.refreshEnergy                0                       # Energy for refresh commands per rank (pJ)
system.mem_ctrls.rank1.actBackEnergy                0                       # Energy for active background per rank (pJ)
system.mem_ctrls.rank1.preBackEnergy     123802019520                       # Energy for precharge background per rank (pJ)
system.mem_ctrls.rank1.actPowerDownEnergy            0                       # Energy for active power-down per rank (pJ)
system.mem_ctrls.rank1.prePowerDownEnergy            0                       # Energy for precharge power-down per rank (pJ)
system.mem_ctrls.rank1.selfRefreshEnergy            0                       # Energy for self refresh per rank (pJ)
system.mem_ctrls.rank1.totalEnergy       123802019520                       # Total energy per rank (pJ)
system.mem_ctrls.rank1.averagePower        383.999999                       # Core power per rank (mW)
system.mem_ctrls.rank1.totalIdleTime                0                       # Total Idle time Per DRAM Rank
system.mem_ctrls.rank1.memoryStateTime::IDLE 331118901000                       # Time in different power states
system.mem_ctrls.rank1.memoryStateTime::REF            0                       # Time in different power states
system.mem_ctrls.rank1.memoryStateTime::SREF            0                       # Time in different power states
system.mem_ctrls.rank1.memoryStateTime::PRE_PDN            0                       # Time in different power states
system.mem_ctrls.rank1.memoryStateTime::ACT            0                       # Time in different power states
system.mem_ctrls.rank1.memoryStateTime::ACT_PDN            0                       # Time in different power states
system.mem_ctrls.rank0.actEnergy                    0                       # Energy for activate commands per rank (pJ)
system.mem_ctrls.rank0.preEnergy                    0                       # Energy for precharge commands per rank (pJ)
system.mem_ctrls.rank0.readEnergy                   0                       # Energy for read commands per rank (pJ)
system.mem_ctrls.rank0.writeEnergy                  0                       # Energy for write commands per rank (pJ)
system.mem_ctrls.rank0.refreshEnergy                0                       # Energy for refresh commands per rank (pJ)
system.mem_ctrls.rank0.actBackEnergy                0                       # Energy for active background per rank (pJ)
system.mem_ctrls.rank0.preBackEnergy     123802019520                       # Energy for precharge background per rank (pJ)
system.mem_ctrls.rank0.actPowerDownEnergy            0                       # Energy for active power-down per rank (pJ)
system.mem_ctrls.rank0.prePowerDownEnergy            0                       # Energy for precharge power-down per rank (pJ)
system.mem_ctrls.rank0.selfRefreshEnergy            0                       # Energy for self refresh per rank (pJ)
system.mem_ctrls.rank0.totalEnergy       123802019520                       # Total energy per rank (pJ)
system.mem_ctrls.rank0.averagePower        383.999999                       # Core power per rank (mW)
system.mem_ctrls.rank0.totalIdleTime                0                       # Total Idle time Per DRAM Rank
system.mem_ctrls.rank0.memoryStateTime::IDLE 331118901000                       # Time in different power states
system.mem_ctrls.rank0.memoryStateTime::REF            0                       # Time in different power states
system.mem_ctrls.rank0.memoryStateTime::SREF            0                       # Time in different power states
system.mem_ctrls.rank0.memoryStateTime::PRE_PDN            0                       # Time in different power states
system.mem_ctrls.rank0.memoryStateTime::ACT            0                       # Time in different power states
system.mem_ctrls.rank0.memoryStateTime::ACT_PDN            0                       # Time in different power states
system.mem_ctrls.power_state.pwrStateResidencyTicks::UNDEFINED 331118901000                       # Cumulative time (in ticks) in various power states
system.cpu_clk_domain.clock                       500                       # Clock period in ticks
system.cpu.icache.demand_hits::.cpu.inst     15680811                       # number of demand (read+write) hits
system.cpu.icache.demand_hits::.switch_cpus.inst    435077040                       # number of demand (read+write) hits
system.cpu.icache.demand_hits::total        450757851                       # number of demand (read+write) hits
system.cpu.icache.overall_hits::.cpu.inst     15680811                       # number of overall hits
system.cpu.icache.overall_hits::.switch_cpus.inst    435077040                       # number of overall hits
system.cpu.icache.overall_hits::total       450757851                       # number of overall hits
system.cpu.icache.demand_misses::.cpu.inst          511                       # number of demand (read+write) misses
system.cpu.icache.demand_misses::.switch_cpus.inst          137                       # number of demand (read+write) misses
system.cpu.icache.demand_misses::total            648                       # number of demand (read+write) misses
system.cpu.icache.overall_misses::.cpu.inst          511                       # number of overall misses
system.cpu.icache.overall_misses::.switch_cpus.inst          137                       # number of overall misses
system.cpu.icache.overall_misses::total           648                       # number of overall misses
system.cpu.icache.demand_accesses::.cpu.inst     15681322                       # number of demand (read+write) accesses
system.cpu.icache.demand_accesses::.switch_cpus.inst    435077177                       # number of demand (read+write) accesses
system.cpu.icache.demand_accesses::total    450758499                       # number of demand (read+write) accesses
system.cpu.icache.overall_accesses::.cpu.inst     15681322                       # number of overall (read+write) accesses
system.cpu.icache.overall_accesses::.switch_cpus.inst    435077177                       # number of overall (read+write) accesses
system.cpu.icache.overall_accesses::total    450758499                       # number of overall (read+write) accesses
system.cpu.icache.demand_miss_rate::.cpu.inst     0.000033                       # miss rate for demand accesses
system.cpu.icache.demand_miss_rate::.switch_cpus.inst     0.000000                       # miss rate for demand accesses
system.cpu.icache.demand_miss_rate::total     0.000001                       # miss rate for demand accesses
system.cpu.icache.overall_miss_rate::.cpu.inst     0.000033                       # miss rate for overall accesses
system.cpu.icache.overall_miss_rate::.switch_cpus.inst     0.000000                       # miss rate for overall accesses
system.cpu.icache.overall_miss_rate::total     0.000001                       # miss rate for overall accesses
system.cpu.icache.blocked_cycles::no_mshrs            0                       # number of cycles access was blocked
system.cpu.icache.blocked_cycles::no_targets            0                       # number of cycles access was blocked
system.cpu.icache.blocked::no_mshrs                 0                       # number of cycles access was blocked
system.cpu.icache.blocked::no_targets               0                       # number of cycles access was blocked
system.cpu.icache.avg_blocked_cycles::no_mshrs          nan                       # average number of cycles each access was blocked
system.cpu.icache.avg_blocked_cycles::no_targets          nan                       # average number of cycles each access was blocked
system.cpu.icache.writebacks::.writebacks          214                       # number of writebacks
system.cpu.icache.writebacks::total               214                       # number of writebacks
system.cpu.icache.replacements                    214                       # number of replacements
system.cpu.icache.ReadReq_hits::.cpu.inst     15680811                       # number of ReadReq hits
system.cpu.icache.ReadReq_hits::.switch_cpus.inst    435077040                       # number of ReadReq hits
system.cpu.icache.ReadReq_hits::total       450757851                       # number of ReadReq hits
system.cpu.icache.ReadReq_misses::.cpu.inst          511                       # number of ReadReq misses
system.cpu.icache.ReadReq_misses::.switch_cpus.inst          137                       # number of ReadReq misses
system.cpu.icache.ReadReq_misses::total           648                       # number of ReadReq misses
system.cpu.icache.ReadReq_accesses::.cpu.inst     15681322                       # number of ReadReq accesses(hits+misses)
system.cpu.icache.ReadReq_accesses::.switch_cpus.inst    435077177                       # number of ReadReq accesses(hits+misses)
system.cpu.icache.ReadReq_accesses::total    450758499                       # number of ReadReq accesses(hits+misses)
system.cpu.icache.ReadReq_miss_rate::.cpu.inst     0.000033                       # miss rate for ReadReq accesses
system.cpu.icache.ReadReq_miss_rate::.switch_cpus.inst     0.000000                       # miss rate for ReadReq accesses
system.cpu.icache.ReadReq_miss_rate::total     0.000001                       # miss rate for ReadReq accesses
system.cpu.icache.power_state.pwrStateResidencyTicks::UNDEFINED 331118901000                       # Cumulative time (in ticks) in various power states
system.cpu.icache.tags.tagsinuse           416.421295                       # Cycle average of tags in use
system.cpu.icache.tags.total_refs           450758499                       # Total number of references to valid blocks.
system.cpu.icache.tags.sampled_refs               648                       # Sample count of references to valid blocks.
system.cpu.icache.tags.avg_refs          695614.967593                       # Average number of references to valid blocks.
system.cpu.icache.tags.warmup_cycle                 0                       # Cycle when the warmup percentage was hit.
system.cpu.icache.tags.occ_blocks::.cpu.inst   330.327509                       # Average occupied blocks per requestor
system.cpu.icache.tags.occ_blocks::.switch_cpus.inst    86.093785                       # Average occupied blocks per requestor
system.cpu.icache.tags.occ_percent::.cpu.inst     0.645171                       # Average percentage of cache occupancy
system.cpu.icache.tags.occ_percent::.switch_cpus.inst     0.168152                       # Average percentage of cache occupancy
system.cpu.icache.tags.occ_percent::total     0.813323                       # Average percentage of cache occupancy
system.cpu.icache.tags.occ_task_id_blocks::1024          434                       # Occupied blocks per task id
system.cpu.icache.tags.age_task_id_blocks_1024::4          434                       # Occupied blocks per task id
system.cpu.icache.tags.occ_task_id_percent::1024     0.847656                       # Percentage of cache occupancy per task id
system.cpu.icache.tags.tag_accesses         901517646                       # Number of tag accesses
system.cpu.icache.tags.data_accesses        901517646                       # Number of data accesses
system.cpu.icache.tags.power_state.pwrStateResidencyTicks::UNDEFINED 331118901000                       # Cumulative time (in ticks) in various power states
system.cpu.dtb.walker.power_state.pwrStateResidencyTicks::UNDEFINED 331118901000                       # Cumulative time (in ticks) in various power states
system.cpu.interrupts.clk_domain.clock           8000                       # Clock period in ticks
system.cpu.itb_walker_cache.blocked_cycles::no_mshrs            0                       # number of cycles access was blocked
system.cpu.itb_walker_cache.blocked_cycles::no_targets            0                       # number of cycles access was blocked
system.cpu.itb_walker_cache.blocked::no_mshrs            0                       # number of cycles access was blocked
system.cpu.itb_walker_cache.blocked::no_targets            0                       # number of cycles access was blocked
system.cpu.itb_walker_cache.avg_blocked_cycles::no_mshrs          nan                       # average number of cycles each access was blocked
system.cpu.itb_walker_cache.avg_blocked_cycles::no_targets          nan                       # average number of cycles each access was blocked
system.cpu.itb_walker_cache.replacements            0                       # number of replacements
system.cpu.itb_walker_cache.power_state.pwrStateResidencyTicks::UNDEFINED 331118901000                       # Cumulative time (in ticks) in various power states
system.cpu.itb_walker_cache.tags.tagsinuse            0                       # Cycle average of tags in use
system.cpu.itb_walker_cache.tags.total_refs            0                       # Total number of references to valid blocks.
system.cpu.itb_walker_cache.tags.sampled_refs            0                       # Sample count of references to valid blocks.
system.cpu.itb_walker_cache.tags.avg_refs          nan                       # Average number of references to valid blocks.
system.cpu.itb_walker_cache.tags.warmup_cycle            0                       # Cycle when the warmup percentage was hit.
system.cpu.itb_walker_cache.tags.tag_accesses            0                       # Number of tag accesses
system.cpu.itb_walker_cache.tags.data_accesses            0                       # Number of data accesses
system.cpu.itb_walker_cache.tags.power_state.pwrStateResidencyTicks::UNDEFINED 331118901000                       # Cumulative time (in ticks) in various power states
system.cpu.itb.walker.power_state.pwrStateResidencyTicks::UNDEFINED 331118901000                       # Cumulative time (in ticks) in various power states
system.cpu.dtb_walker_cache.blocked_cycles::no_mshrs            0                       # number of cycles access was blocked
system.cpu.dtb_walker_cache.blocked_cycles::no_targets            0                       # number of cycles access was blocked
system.cpu.dtb_walker_cache.blocked::no_mshrs            0                       # number of cycles access was blocked
system.cpu.dtb_walker_cache.blocked::no_targets            0                       # number of cycles access was blocked
system.cpu.dtb_walker_cache.avg_blocked_cycles::no_mshrs          nan                       # average number of cycles each access was blocked
system.cpu.dtb_walker_cache.avg_blocked_cycles::no_targets          nan                       # average number of cycles each access was blocked
system.cpu.dtb_walker_cache.replacements            0                       # number of replacements
system.cpu.dtb_walker_cache.power_state.pwrStateResidencyTicks::UNDEFINED 331118901000                       # Cumulative time (in ticks) in various power states
system.cpu.dtb_walker_cache.tags.tagsinuse            0                       # Cycle average of tags in use
system.cpu.dtb_walker_cache.tags.total_refs            0                       # Total number of references to valid blocks.
system.cpu.dtb_walker_cache.tags.sampled_refs            0                       # Sample count of references to valid blocks.
system.cpu.dtb_walker_cache.tags.avg_refs          nan                       # Average number of references to valid blocks.
system.cpu.dtb_walker_cache.tags.warmup_cycle            0                       # Cycle when the warmup percentage was hit.
system.cpu.dtb_walker_cache.tags.tag_accesses            0                       # Number of tag accesses
system.cpu.dtb_walker_cache.tags.data_accesses            0                       # Number of data accesses
system.cpu.dtb_walker_cache.tags.power_state.pwrStateResidencyTicks::UNDEFINED 331118901000                       # Cumulative time (in ticks) in various power states
system.cpu.dcache.demand_hits::.cpu.data      7601895                       # number of demand (read+write) hits
system.cpu.dcache.demand_hits::.switch_cpus.data    154493438                       # number of demand (read+write) hits
system.cpu.dcache.demand_hits::total        162095333                       # number of demand (read+write) hits
system.cpu.dcache.overall_hits::.cpu.data      7601895                       # number of overall hits
system.cpu.dcache.overall_hits::.switch_cpus.data    154493438                       # number of overall hits
system.cpu.dcache.overall_hits::total       162095333                       # number of overall hits
system.cpu.dcache.demand_misses::.cpu.data      1085187                       # number of demand (read+write) misses
system.cpu.dcache.demand_misses::.switch_cpus.data      8700920                       # number of demand (read+write) misses
system.cpu.dcache.demand_misses::total        9786107                       # number of demand (read+write) misses
system.cpu.dcache.overall_misses::.cpu.data      1085187                       # number of overall misses
system.cpu.dcache.overall_misses::.switch_cpus.data      8793713                       # number of overall misses
system.cpu.dcache.overall_misses::total       9878900                       # number of overall misses
system.cpu.dcache.demand_accesses::.cpu.data      8687082                       # number of demand (read+write) accesses
system.cpu.dcache.demand_accesses::.switch_cpus.data    163194358                       # number of demand (read+write) accesses
system.cpu.dcache.demand_accesses::total    171881440                       # number of demand (read+write) accesses
system.cpu.dcache.overall_accesses::.cpu.data      8687082                       # number of overall (read+write) accesses
system.cpu.dcache.overall_accesses::.switch_cpus.data    163287151                       # number of overall (read+write) accesses
system.cpu.dcache.overall_accesses::total    171974233                       # number of overall (read+write) accesses
system.cpu.dcache.demand_miss_rate::.cpu.data     0.124920                       # miss rate for demand accesses
system.cpu.dcache.demand_miss_rate::.switch_cpus.data     0.053316                       # miss rate for demand accesses
system.cpu.dcache.demand_miss_rate::total     0.056935                       # miss rate for demand accesses
system.cpu.dcache.overall_miss_rate::.cpu.data     0.124920                       # miss rate for overall accesses
system.cpu.dcache.overall_miss_rate::.switch_cpus.data     0.053854                       # miss rate for overall accesses
system.cpu.dcache.overall_miss_rate::total     0.057444                       # miss rate for overall accesses
system.cpu.dcache.blocked_cycles::no_mshrs            0                       # number of cycles access was blocked
system.cpu.dcache.blocked_cycles::no_targets            0                       # number of cycles access was blocked
system.cpu.dcache.blocked::no_mshrs                 0                       # number of cycles access was blocked
system.cpu.dcache.blocked::no_targets               0                       # number of cycles access was blocked
system.cpu.dcache.avg_blocked_cycles::no_mshrs          nan                       # average number of cycles each access was blocked
system.cpu.dcache.avg_blocked_cycles::no_targets          nan                       # average number of cycles each access was blocked
system.cpu.dcache.writebacks::.writebacks      6965419                       # number of writebacks
system.cpu.dcache.writebacks::total           6965419                       # number of writebacks
system.cpu.dcache.replacements                9877876                       # number of replacements
system.cpu.dcache.ReadReq_hits::.cpu.data         4180                       # number of ReadReq hits
system.cpu.dcache.ReadReq_hits::.switch_cpus.data     81027175                       # number of ReadReq hits
system.cpu.dcache.ReadReq_hits::total        81031355                       # number of ReadReq hits
system.cpu.dcache.ReadReq_misses::.cpu.data           87                       # number of ReadReq misses
system.cpu.dcache.ReadReq_misses::.switch_cpus.data      3085819                       # number of ReadReq misses
system.cpu.dcache.ReadReq_misses::total       3085906                       # number of ReadReq misses
system.cpu.dcache.ReadReq_accesses::.cpu.data         4267                       # number of ReadReq accesses(hits+misses)
system.cpu.dcache.ReadReq_accesses::.switch_cpus.data     84112994                       # number of ReadReq accesses(hits+misses)
system.cpu.dcache.ReadReq_accesses::total     84117261                       # number of ReadReq accesses(hits+misses)
system.cpu.dcache.ReadReq_miss_rate::.cpu.data     0.020389                       # miss rate for ReadReq accesses
system.cpu.dcache.ReadReq_miss_rate::.switch_cpus.data     0.036687                       # miss rate for ReadReq accesses
system.cpu.dcache.ReadReq_miss_rate::total     0.036686                       # miss rate for ReadReq accesses
system.cpu.dcache.WriteReq_hits::.cpu.data      7597715                       # number of WriteReq hits
system.cpu.dcache.WriteReq_hits::.switch_cpus.data     73466263                       # number of WriteReq hits
system.cpu.dcache.WriteReq_hits::total       81063978                       # number of WriteReq hits
system.cpu.dcache.WriteReq_misses::.cpu.data      1085100                       # number of WriteReq misses
system.cpu.dcache.WriteReq_misses::.switch_cpus.data      5615101                       # number of WriteReq misses
system.cpu.dcache.WriteReq_misses::total      6700201                       # number of WriteReq misses
system.cpu.dcache.WriteReq_accesses::.cpu.data      8682815                       # number of WriteReq accesses(hits+misses)
system.cpu.dcache.WriteReq_accesses::.switch_cpus.data     79081364                       # number of WriteReq accesses(hits+misses)
system.cpu.dcache.WriteReq_accesses::total     87764179                       # number of WriteReq accesses(hits+misses)
system.cpu.dcache.WriteReq_miss_rate::.cpu.data     0.124971                       # miss rate for WriteReq accesses
system.cpu.dcache.WriteReq_miss_rate::.switch_cpus.data     0.071004                       # miss rate for WriteReq accesses
system.cpu.dcache.WriteReq_miss_rate::total     0.076343                       # miss rate for WriteReq accesses
system.cpu.dcache.SoftPFReq_misses::.switch_cpus.data        92793                       # number of SoftPFReq misses
system.cpu.dcache.SoftPFReq_misses::total        92793                       # number of SoftPFReq misses
system.cpu.dcache.SoftPFReq_accesses::.switch_cpus.data        92793                       # number of SoftPFReq accesses(hits+misses)
system.cpu.dcache.SoftPFReq_accesses::total        92793                       # number of SoftPFReq accesses(hits+misses)
system.cpu.dcache.SoftPFReq_miss_rate::.switch_cpus.data            1                       # miss rate for SoftPFReq accesses
system.cpu.dcache.SoftPFReq_miss_rate::total            1                       # miss rate for SoftPFReq accesses
system.cpu.dcache.power_state.pwrStateResidencyTicks::UNDEFINED 331118901000                       # Cumulative time (in ticks) in various power states
system.cpu.dcache.tags.tagsinuse          1023.936541                       # Cycle average of tags in use
system.cpu.dcache.tags.total_refs           171974233                       # Total number of references to valid blocks.
system.cpu.dcache.tags.sampled_refs           9878900                       # Sample count of references to valid blocks.
system.cpu.dcache.tags.avg_refs             17.408237                       # Average number of references to valid blocks.
system.cpu.dcache.tags.warmup_cycle              1000                       # Cycle when the warmup percentage was hit.
system.cpu.dcache.tags.occ_blocks::.cpu.data    26.909458                       # Average occupied blocks per requestor
system.cpu.dcache.tags.occ_blocks::.switch_cpus.data   997.027084                       # Average occupied blocks per requestor
system.cpu.dcache.tags.occ_percent::.cpu.data     0.026279                       # Average percentage of cache occupancy
system.cpu.dcache.tags.occ_percent::.switch_cpus.data     0.973659                       # Average percentage of cache occupancy
system.cpu.dcache.tags.occ_percent::total     0.999938                       # Average percentage of cache occupancy
system.cpu.dcache.tags.occ_task_id_blocks::1024         1024                       # Occupied blocks per task id
system.cpu.dcache.tags.age_task_id_blocks_1024::0          287                       # Occupied blocks per task id
system.cpu.dcache.tags.age_task_id_blocks_1024::1          735                       # Occupied blocks per task id
system.cpu.dcache.tags.age_task_id_blocks_1024::4            2                       # Occupied blocks per task id
system.cpu.dcache.tags.occ_task_id_percent::1024            1                       # Percentage of cache occupancy per task id
system.cpu.dcache.tags.tag_accesses         353827366                       # Number of tag accesses
system.cpu.dcache.tags.data_accesses        353827366                       # Number of data accesses
system.cpu.dcache.tags.power_state.pwrStateResidencyTicks::UNDEFINED 331118901000                       # Cumulative time (in ticks) in various power states
system.cpu.power_state.numTransitions               2                       # Number of power state transitions
system.cpu.power_state.pwrStateResidencyTicks::ON   8717808000                       # Cumulative time (in ticks) in various power states
system.cpu.power_state.pwrStateResidencyTicks::OFF 322401093000                       # Cumulative time (in ticks) in various power states

---------- End Simulation Statistics   ----------
