
---------- Begin Simulation Statistics ----------
final_tick                                 3845206000                       # Number of ticks from beginning of simulation (restored from checkpoints and never reset)
host_inst_rate                                  89294                       # Simulator instruction rate (inst/s)
host_mem_usage                               34300680                       # Number of bytes of host memory used
host_op_rate                                   179782                       # Simulator op (including micro ops) rate (op/s)
host_seconds                                    11.20                       # Real time elapsed on the host
host_tick_rate                              343331033                       # Simulator tick rate (ticks/s)
sim_freq                                 1000000000000                       # Frequency of simulated ticks
sim_insts                                     1000025                       # Number of instructions simulated
sim_ops                                       2013478                       # Number of ops (including micro ops) simulated
sim_seconds                                  0.003845                       # Number of seconds simulated
sim_ticks                                  3845206000                       # Number of ticks simulated
system.cpu.Branches                            240145                       # Number of branches fetched
system.cpu.committedInsts                     1000025                       # Number of instructions committed
system.cpu.committedOps                       2013478                       # Number of ops (including micro ops) committed
system.cpu.dtb.rdAccesses                      177660                       # TLB accesses on read requests
system.cpu.dtb.rdMisses                           269                       # TLB misses on read requests
system.cpu.dtb.wrAccesses                      135779                       # TLB accesses on write requests
system.cpu.dtb.wrMisses                           203                       # TLB misses on write requests
system.cpu.idle_fraction                            0                       # Percentage of idle cycles
system.cpu.itb.rdAccesses                           0                       # TLB accesses on read requests
system.cpu.itb.rdMisses                             0                       # TLB misses on read requests
system.cpu.itb.wrAccesses                     1293630                       # TLB accesses on write requests
system.cpu.itb.wrMisses                           175                       # TLB misses on write requests
system.cpu.not_idle_fraction                        1                       # Percentage of non-idle cycles
system.cpu.numCycles                          3845195                       # number of cpu cycles simulated
system.cpu.numWorkItemsCompleted                    0                       # number of work items this cpu completed
system.cpu.numWorkItemsStarted                      0                       # number of work items this cpu started
system.cpu.num_busy_cycles                    3845195                       # Number of busy cycles
system.cpu.num_cc_register_reads              1574328                       # number of times the CC registers were read
system.cpu.num_cc_register_writes              729666                       # number of times the CC registers were written
system.cpu.num_conditional_control_insts       202551                       # number of instructions that are conditional controls
system.cpu.num_fp_alu_accesses                  89568                       # Number of float alu accesses
system.cpu.num_fp_insts                         89568                       # number of float instructions
system.cpu.num_fp_register_reads               142315                       # number of times the floating registers were read
system.cpu.num_fp_register_writes               64073                       # number of times the floating registers were written
system.cpu.num_func_calls                       28269                       # number of times a function call or return occured
system.cpu.num_idle_cycles                          0                       # Number of idle cycles
system.cpu.num_int_alu_accesses               1937429                       # Number of integer alu accesses
system.cpu.num_int_insts                      1937429                       # number of integer instructions
system.cpu.num_int_register_reads             3536038                       # number of times the integer registers were read
system.cpu.num_int_register_writes            1567289                       # number of times the integer registers were written
system.cpu.num_load_insts                      176785                       # Number of load instructions
system.cpu.num_mem_refs                        312546                       # number of memory refs
system.cpu.num_store_insts                     135761                       # Number of store instructions
system.cpu.num_vec_alu_accesses                     0                       # Number of vector alu accesses
system.cpu.num_vec_insts                            0                       # number of vector instructions
system.cpu.num_vec_register_reads                   0                       # number of times the vector registers were read
system.cpu.num_vec_register_writes                  0                       # number of times the vector registers were written
system.cpu.op_class::No_OpClass                 23054      1.14%      1.14% # Class of executed instruction
system.cpu.op_class::IntAlu                   1614565     80.18%     81.33% # Class of executed instruction
system.cpu.op_class::IntMult                     1188      0.06%     81.39% # Class of executed instruction
system.cpu.op_class::IntDiv                      1176      0.06%     81.45% # Class of executed instruction
system.cpu.op_class::FloatAdd                     785      0.04%     81.49% # Class of executed instruction
system.cpu.op_class::FloatCmp                       0      0.00%     81.49% # Class of executed instruction
system.cpu.op_class::FloatCvt                       0      0.00%     81.49% # Class of executed instruction
system.cpu.op_class::FloatMult                      0      0.00%     81.49% # Class of executed instruction
system.cpu.op_class::FloatMultAcc                   0      0.00%     81.49% # Class of executed instruction
system.cpu.op_class::FloatDiv                       0      0.00%     81.49% # Class of executed instruction
system.cpu.op_class::FloatMisc                      0      0.00%     81.49% # Class of executed instruction
system.cpu.op_class::FloatSqrt                      0      0.00%     81.49% # Class of executed instruction
system.cpu.op_class::SimdAdd                     1806      0.09%     81.58% # Class of executed instruction
system.cpu.op_class::SimdAddAcc                     0      0.00%     81.58% # Class of executed instruction
system.cpu.op_class::SimdAlu                    30794      1.53%     83.10% # Class of executed instruction
system.cpu.op_class::SimdCmp                        0      0.00%     83.10% # Class of executed instruction
system.cpu.op_class::SimdCvt                    12148      0.60%     83.71% # Class of executed instruction
system.cpu.op_class::SimdMisc                   14731      0.73%     84.44% # Class of executed instruction
system.cpu.op_class::SimdMult                       0      0.00%     84.44% # Class of executed instruction
system.cpu.op_class::SimdMultAcc                    0      0.00%     84.44% # Class of executed instruction
system.cpu.op_class::SimdShift                    741      0.04%     84.48% # Class of executed instruction
system.cpu.op_class::SimdShiftAcc                   0      0.00%     84.48% # Class of executed instruction
system.cpu.op_class::SimdDiv                        0      0.00%     84.48% # Class of executed instruction
system.cpu.op_class::SimdSqrt                       0      0.00%     84.48% # Class of executed instruction
system.cpu.op_class::SimdFloatAdd                   2      0.00%     84.48% # Class of executed instruction
system.cpu.op_class::SimdFloatAlu                   0      0.00%     84.48% # Class of executed instruction
system.cpu.op_class::SimdFloatCmp                   2      0.00%     84.48% # Class of executed instruction
system.cpu.op_class::SimdFloatCvt                  17      0.00%     84.48% # Class of executed instruction
system.cpu.op_class::SimdFloatDiv                   1      0.00%     84.48% # Class of executed instruction
system.cpu.op_class::SimdFloatMisc                  0      0.00%     84.48% # Class of executed instruction
system.cpu.op_class::SimdFloatMult                 12      0.00%     84.48% # Class of executed instruction
system.cpu.op_class::SimdFloatMultAcc               0      0.00%     84.48% # Class of executed instruction
system.cpu.op_class::SimdFloatSqrt                  0      0.00%     84.48% # Class of executed instruction
system.cpu.op_class::SimdReduceAdd                  0      0.00%     84.48% # Class of executed instruction
system.cpu.op_class::SimdReduceAlu                  0      0.00%     84.48% # Class of executed instruction
system.cpu.op_class::SimdReduceCmp                  0      0.00%     84.48% # Class of executed instruction
system.cpu.op_class::SimdFloatReduceAdd             0      0.00%     84.48% # Class of executed instruction
system.cpu.op_class::SimdFloatReduceCmp             0      0.00%     84.48% # Class of executed instruction
system.cpu.op_class::SimdAes                        0      0.00%     84.48% # Class of executed instruction
system.cpu.op_class::SimdAesMix                     0      0.00%     84.48% # Class of executed instruction
system.cpu.op_class::SimdSha1Hash                   0      0.00%     84.48% # Class of executed instruction
system.cpu.op_class::SimdSha1Hash2                  0      0.00%     84.48% # Class of executed instruction
system.cpu.op_class::SimdSha256Hash                 0      0.00%     84.48% # Class of executed instruction
system.cpu.op_class::SimdSha256Hash2                0      0.00%     84.48% # Class of executed instruction
system.cpu.op_class::SimdShaSigma2                  0      0.00%     84.48% # Class of executed instruction
system.cpu.op_class::SimdShaSigma3                  0      0.00%     84.48% # Class of executed instruction
system.cpu.op_class::SimdPredAlu                    0      0.00%     84.48% # Class of executed instruction
system.cpu.op_class::MemRead                   165265      8.21%     92.69% # Class of executed instruction
system.cpu.op_class::MemWrite                  120158      5.97%     98.65% # Class of executed instruction
system.cpu.op_class::FloatMemRead               11520      0.57%     99.23% # Class of executed instruction
system.cpu.op_class::FloatMemWrite              15603      0.77%    100.00% # Class of executed instruction
system.cpu.op_class::IprAccess                      0      0.00%    100.00% # Class of executed instruction
system.cpu.op_class::InstPrefetch                   0      0.00%    100.00% # Class of executed instruction
system.cpu.op_class::total                    2013568                       # Class of executed instruction
system.cpu.workload.numSyscalls                    31                       # Number of system calls
system.dynamic_cache.flushTicks                     0                       # Ticks taken to flush
system.dynamic_cache.numFlushes                     0                       # Number of Flushes Taken
system.cache_small.demand_hits::.cpu.inst         2662                       # number of demand (read+write) hits
system.cache_small.demand_hits::.cpu.data         1756                       # number of demand (read+write) hits
system.cache_small.demand_hits::total            4418                       # number of demand (read+write) hits
system.cache_small.overall_hits::.cpu.inst         2662                       # number of overall hits
system.cache_small.overall_hits::.cpu.data         1756                       # number of overall hits
system.cache_small.overall_hits::total           4418                       # number of overall hits
system.cache_small.demand_misses::.cpu.inst         1646                       # number of demand (read+write) misses
system.cache_small.demand_misses::.cpu.data         4588                       # number of demand (read+write) misses
system.cache_small.demand_misses::total          6234                       # number of demand (read+write) misses
system.cache_small.overall_misses::.cpu.inst         1646                       # number of overall misses
system.cache_small.overall_misses::.cpu.data         4588                       # number of overall misses
system.cache_small.overall_misses::total         6234                       # number of overall misses
system.cache_small.demand_miss_latency::.cpu.inst    101733000                       # number of demand (read+write) miss cycles
system.cache_small.demand_miss_latency::.cpu.data    276773000                       # number of demand (read+write) miss cycles
system.cache_small.demand_miss_latency::total    378506000                       # number of demand (read+write) miss cycles
system.cache_small.overall_miss_latency::.cpu.inst    101733000                       # number of overall miss cycles
system.cache_small.overall_miss_latency::.cpu.data    276773000                       # number of overall miss cycles
system.cache_small.overall_miss_latency::total    378506000                       # number of overall miss cycles
system.cache_small.demand_accesses::.cpu.inst         4308                       # number of demand (read+write) accesses
system.cache_small.demand_accesses::.cpu.data         6344                       # number of demand (read+write) accesses
system.cache_small.demand_accesses::total        10652                       # number of demand (read+write) accesses
system.cache_small.overall_accesses::.cpu.inst         4308                       # number of overall (read+write) accesses
system.cache_small.overall_accesses::.cpu.data         6344                       # number of overall (read+write) accesses
system.cache_small.overall_accesses::total        10652                       # number of overall (read+write) accesses
system.cache_small.demand_miss_rate::.cpu.inst     0.382080                       # miss rate for demand accesses
system.cache_small.demand_miss_rate::.cpu.data     0.723203                       # miss rate for demand accesses
system.cache_small.demand_miss_rate::total     0.585242                       # miss rate for demand accesses
system.cache_small.overall_miss_rate::.cpu.inst     0.382080                       # miss rate for overall accesses
system.cache_small.overall_miss_rate::.cpu.data     0.723203                       # miss rate for overall accesses
system.cache_small.overall_miss_rate::total     0.585242                       # miss rate for overall accesses
system.cache_small.demand_avg_miss_latency::.cpu.inst 61806.196841                       # average overall miss latency
system.cache_small.demand_avg_miss_latency::.cpu.data 60325.414124                       # average overall miss latency
system.cache_small.demand_avg_miss_latency::total 60716.393969                       # average overall miss latency
system.cache_small.overall_avg_miss_latency::.cpu.inst 61806.196841                       # average overall miss latency
system.cache_small.overall_avg_miss_latency::.cpu.data 60325.414124                       # average overall miss latency
system.cache_small.overall_avg_miss_latency::total 60716.393969                       # average overall miss latency
system.cache_small.blocked_cycles::no_mshrs            0                       # number of cycles access was blocked
system.cache_small.blocked_cycles::no_targets            0                       # number of cycles access was blocked
system.cache_small.blocked::no_mshrs                0                       # number of cycles access was blocked
system.cache_small.blocked::no_targets              0                       # number of cycles access was blocked
system.cache_small.avg_blocked_cycles::no_mshrs          nan                       # average number of cycles each access was blocked
system.cache_small.avg_blocked_cycles::no_targets          nan                       # average number of cycles each access was blocked
system.cache_small.writebacks::.writebacks          510                       # number of writebacks
system.cache_small.writebacks::total              510                       # number of writebacks
system.cache_small.demand_mshr_misses::.cpu.inst         1646                       # number of demand (read+write) MSHR misses
system.cache_small.demand_mshr_misses::.cpu.data         4588                       # number of demand (read+write) MSHR misses
system.cache_small.demand_mshr_misses::total         6234                       # number of demand (read+write) MSHR misses
system.cache_small.overall_mshr_misses::.cpu.inst         1646                       # number of overall MSHR misses
system.cache_small.overall_mshr_misses::.cpu.data         4588                       # number of overall MSHR misses
system.cache_small.overall_mshr_misses::total         6234                       # number of overall MSHR misses
system.cache_small.demand_mshr_miss_latency::.cpu.inst     98441000                       # number of demand (read+write) MSHR miss cycles
system.cache_small.demand_mshr_miss_latency::.cpu.data    267597000                       # number of demand (read+write) MSHR miss cycles
system.cache_small.demand_mshr_miss_latency::total    366038000                       # number of demand (read+write) MSHR miss cycles
system.cache_small.overall_mshr_miss_latency::.cpu.inst     98441000                       # number of overall MSHR miss cycles
system.cache_small.overall_mshr_miss_latency::.cpu.data    267597000                       # number of overall MSHR miss cycles
system.cache_small.overall_mshr_miss_latency::total    366038000                       # number of overall MSHR miss cycles
system.cache_small.demand_mshr_miss_rate::.cpu.inst     0.382080                       # mshr miss rate for demand accesses
system.cache_small.demand_mshr_miss_rate::.cpu.data     0.723203                       # mshr miss rate for demand accesses
system.cache_small.demand_mshr_miss_rate::total     0.585242                       # mshr miss rate for demand accesses
system.cache_small.overall_mshr_miss_rate::.cpu.inst     0.382080                       # mshr miss rate for overall accesses
system.cache_small.overall_mshr_miss_rate::.cpu.data     0.723203                       # mshr miss rate for overall accesses
system.cache_small.overall_mshr_miss_rate::total     0.585242                       # mshr miss rate for overall accesses
system.cache_small.demand_avg_mshr_miss_latency::.cpu.inst 59806.196841                       # average overall mshr miss latency
system.cache_small.demand_avg_mshr_miss_latency::.cpu.data 58325.414124                       # average overall mshr miss latency
system.cache_small.demand_avg_mshr_miss_latency::total 58716.393969                       # average overall mshr miss latency
system.cache_small.overall_avg_mshr_miss_latency::.cpu.inst 59806.196841                       # average overall mshr miss latency
system.cache_small.overall_avg_mshr_miss_latency::.cpu.data 58325.414124                       # average overall mshr miss latency
system.cache_small.overall_avg_mshr_miss_latency::total 58716.393969                       # average overall mshr miss latency
system.cache_small.replacements                  1271                       # number of replacements
system.cache_small.ReadReq_hits::.cpu.inst         2662                       # number of ReadReq hits
system.cache_small.ReadReq_hits::.cpu.data         1756                       # number of ReadReq hits
system.cache_small.ReadReq_hits::total           4418                       # number of ReadReq hits
system.cache_small.ReadReq_misses::.cpu.inst         1646                       # number of ReadReq misses
system.cache_small.ReadReq_misses::.cpu.data         4588                       # number of ReadReq misses
system.cache_small.ReadReq_misses::total         6234                       # number of ReadReq misses
system.cache_small.ReadReq_miss_latency::.cpu.inst    101733000                       # number of ReadReq miss cycles
system.cache_small.ReadReq_miss_latency::.cpu.data    276773000                       # number of ReadReq miss cycles
system.cache_small.ReadReq_miss_latency::total    378506000                       # number of ReadReq miss cycles
system.cache_small.ReadReq_accesses::.cpu.inst         4308                       # number of ReadReq accesses(hits+misses)
system.cache_small.ReadReq_accesses::.cpu.data         6344                       # number of ReadReq accesses(hits+misses)
system.cache_small.ReadReq_accesses::total        10652                       # number of ReadReq accesses(hits+misses)
system.cache_small.ReadReq_miss_rate::.cpu.inst     0.382080                       # miss rate for ReadReq accesses
system.cache_small.ReadReq_miss_rate::.cpu.data     0.723203                       # miss rate for ReadReq accesses
system.cache_small.ReadReq_miss_rate::total     0.585242                       # miss rate for ReadReq accesses
system.cache_small.ReadReq_avg_miss_latency::.cpu.inst 61806.196841                       # average ReadReq miss latency
system.cache_small.ReadReq_avg_miss_latency::.cpu.data 60325.414124                       # average ReadReq miss latency
system.cache_small.ReadReq_avg_miss_latency::total 60716.393969                       # average ReadReq miss latency
system.cache_small.ReadReq_mshr_misses::.cpu.inst         1646                       # number of ReadReq MSHR misses
system.cache_small.ReadReq_mshr_misses::.cpu.data         4588                       # number of ReadReq MSHR misses
system.cache_small.ReadReq_mshr_misses::total         6234                       # number of ReadReq MSHR misses
system.cache_small.ReadReq_mshr_miss_latency::.cpu.inst     98441000                       # number of ReadReq MSHR miss cycles
system.cache_small.ReadReq_mshr_miss_latency::.cpu.data    267597000                       # number of ReadReq MSHR miss cycles
system.cache_small.ReadReq_mshr_miss_latency::total    366038000                       # number of ReadReq MSHR miss cycles
system.cache_small.ReadReq_mshr_miss_rate::.cpu.inst     0.382080                       # mshr miss rate for ReadReq accesses
system.cache_small.ReadReq_mshr_miss_rate::.cpu.data     0.723203                       # mshr miss rate for ReadReq accesses
system.cache_small.ReadReq_mshr_miss_rate::total     0.585242                       # mshr miss rate for ReadReq accesses
system.cache_small.ReadReq_avg_mshr_miss_latency::.cpu.inst 59806.196841                       # average ReadReq mshr miss latency
system.cache_small.ReadReq_avg_mshr_miss_latency::.cpu.data 58325.414124                       # average ReadReq mshr miss latency
system.cache_small.ReadReq_avg_mshr_miss_latency::total 58716.393969                       # average ReadReq mshr miss latency
system.cache_small.WritebackDirty_hits::.writebacks         4656                       # number of WritebackDirty hits
system.cache_small.WritebackDirty_hits::total         4656                       # number of WritebackDirty hits
system.cache_small.WritebackDirty_accesses::.writebacks         4656                       # number of WritebackDirty accesses(hits+misses)
system.cache_small.WritebackDirty_accesses::total         4656                       # number of WritebackDirty accesses(hits+misses)
system.cache_small.power_state.pwrStateResidencyTicks::UNDEFINED   3845206000                       # Cumulative time (in ticks) in various power states
system.cache_small.tags.tagsinuse         3672.065713                       # Cycle average of tags in use
system.cache_small.tags.total_refs               2617                       # Total number of references to valid blocks.
system.cache_small.tags.sampled_refs             1271                       # Sample count of references to valid blocks.
system.cache_small.tags.avg_refs             2.059009                       # Average number of references to valid blocks.
system.cache_small.tags.warmup_cycle            76000                       # Cycle when the warmup percentage was hit.
system.cache_small.tags.occ_blocks::.writebacks    30.998835                       # Average occupied blocks per requestor
system.cache_small.tags.occ_blocks::.cpu.inst   815.279514                       # Average occupied blocks per requestor
system.cache_small.tags.occ_blocks::.cpu.data  2825.787363                       # Average occupied blocks per requestor
system.cache_small.tags.occ_percent::.writebacks     0.001892                       # Average percentage of cache occupancy
system.cache_small.tags.occ_percent::.cpu.inst     0.049761                       # Average percentage of cache occupancy
system.cache_small.tags.occ_percent::.cpu.data     0.172472                       # Average percentage of cache occupancy
system.cache_small.tags.occ_percent::total     0.224125                       # Average percentage of cache occupancy
system.cache_small.tags.occ_task_id_blocks::1024         5106                       # Occupied blocks per task id
system.cache_small.tags.age_task_id_blocks_1024::2          236                       # Occupied blocks per task id
system.cache_small.tags.age_task_id_blocks_1024::3         4870                       # Occupied blocks per task id
system.cache_small.tags.occ_task_id_percent::1024     0.311646                       # Percentage of cache occupancy per task id
system.cache_small.tags.tag_accesses            21685                       # Number of tag accesses
system.cache_small.tags.data_accesses           21685                       # Number of data accesses
system.cache_small.tags.power_state.pwrStateResidencyTicks::UNDEFINED   3845206000                       # Cumulative time (in ticks) in various power states
system.icache.demand_hits::.cpu.inst          1286376                       # number of demand (read+write) hits
system.icache.demand_hits::total              1286376                       # number of demand (read+write) hits
system.icache.overall_hits::.cpu.inst         1286376                       # number of overall hits
system.icache.overall_hits::total             1286376                       # number of overall hits
system.icache.demand_misses::.cpu.inst           7254                       # number of demand (read+write) misses
system.icache.demand_misses::total               7254                       # number of demand (read+write) misses
system.icache.overall_misses::.cpu.inst          7254                       # number of overall misses
system.icache.overall_misses::total              7254                       # number of overall misses
system.icache.demand_miss_latency::.cpu.inst    224721000                       # number of demand (read+write) miss cycles
system.icache.demand_miss_latency::total    224721000                       # number of demand (read+write) miss cycles
system.icache.overall_miss_latency::.cpu.inst    224721000                       # number of overall miss cycles
system.icache.overall_miss_latency::total    224721000                       # number of overall miss cycles
system.icache.demand_accesses::.cpu.inst      1293630                       # number of demand (read+write) accesses
system.icache.demand_accesses::total          1293630                       # number of demand (read+write) accesses
system.icache.overall_accesses::.cpu.inst      1293630                       # number of overall (read+write) accesses
system.icache.overall_accesses::total         1293630                       # number of overall (read+write) accesses
system.icache.demand_miss_rate::.cpu.inst     0.005607                       # miss rate for demand accesses
system.icache.demand_miss_rate::total        0.005607                       # miss rate for demand accesses
system.icache.overall_miss_rate::.cpu.inst     0.005607                       # miss rate for overall accesses
system.icache.overall_miss_rate::total       0.005607                       # miss rate for overall accesses
system.icache.demand_avg_miss_latency::.cpu.inst 30978.908189                       # average overall miss latency
system.icache.demand_avg_miss_latency::total 30978.908189                       # average overall miss latency
system.icache.overall_avg_miss_latency::.cpu.inst 30978.908189                       # average overall miss latency
system.icache.overall_avg_miss_latency::total 30978.908189                       # average overall miss latency
system.icache.blocked_cycles::no_mshrs              0                       # number of cycles access was blocked
system.icache.blocked_cycles::no_targets            0                       # number of cycles access was blocked
system.icache.blocked::no_mshrs                     0                       # number of cycles access was blocked
system.icache.blocked::no_targets                   0                       # number of cycles access was blocked
system.icache.avg_blocked_cycles::no_mshrs          nan                       # average number of cycles each access was blocked
system.icache.avg_blocked_cycles::no_targets          nan                       # average number of cycles each access was blocked
system.icache.demand_mshr_misses::.cpu.inst         7254                       # number of demand (read+write) MSHR misses
system.icache.demand_mshr_misses::total          7254                       # number of demand (read+write) MSHR misses
system.icache.overall_mshr_misses::.cpu.inst         7254                       # number of overall MSHR misses
system.icache.overall_mshr_misses::total         7254                       # number of overall MSHR misses
system.icache.demand_mshr_miss_latency::.cpu.inst    210213000                       # number of demand (read+write) MSHR miss cycles
system.icache.demand_mshr_miss_latency::total    210213000                       # number of demand (read+write) MSHR miss cycles
system.icache.overall_mshr_miss_latency::.cpu.inst    210213000                       # number of overall MSHR miss cycles
system.icache.overall_mshr_miss_latency::total    210213000                       # number of overall MSHR miss cycles
system.icache.demand_mshr_miss_rate::.cpu.inst     0.005607                       # mshr miss rate for demand accesses
system.icache.demand_mshr_miss_rate::total     0.005607                       # mshr miss rate for demand accesses
system.icache.overall_mshr_miss_rate::.cpu.inst     0.005607                       # mshr miss rate for overall accesses
system.icache.overall_mshr_miss_rate::total     0.005607                       # mshr miss rate for overall accesses
system.icache.demand_avg_mshr_miss_latency::.cpu.inst 28978.908189                       # average overall mshr miss latency
system.icache.demand_avg_mshr_miss_latency::total 28978.908189                       # average overall mshr miss latency
system.icache.overall_avg_mshr_miss_latency::.cpu.inst 28978.908189                       # average overall mshr miss latency
system.icache.overall_avg_mshr_miss_latency::total 28978.908189                       # average overall mshr miss latency
system.icache.replacements                       6998                       # number of replacements
system.icache.ReadReq_hits::.cpu.inst         1286376                       # number of ReadReq hits
system.icache.ReadReq_hits::total             1286376                       # number of ReadReq hits
system.icache.ReadReq_misses::.cpu.inst          7254                       # number of ReadReq misses
system.icache.ReadReq_misses::total              7254                       # number of ReadReq misses
system.icache.ReadReq_miss_latency::.cpu.inst    224721000                       # number of ReadReq miss cycles
system.icache.ReadReq_miss_latency::total    224721000                       # number of ReadReq miss cycles
system.icache.ReadReq_accesses::.cpu.inst      1293630                       # number of ReadReq accesses(hits+misses)
system.icache.ReadReq_accesses::total         1293630                       # number of ReadReq accesses(hits+misses)
system.icache.ReadReq_miss_rate::.cpu.inst     0.005607                       # miss rate for ReadReq accesses
system.icache.ReadReq_miss_rate::total       0.005607                       # miss rate for ReadReq accesses
system.icache.ReadReq_avg_miss_latency::.cpu.inst 30978.908189                       # average ReadReq miss latency
system.icache.ReadReq_avg_miss_latency::total 30978.908189                       # average ReadReq miss latency
system.icache.ReadReq_mshr_misses::.cpu.inst         7254                       # number of ReadReq MSHR misses
system.icache.ReadReq_mshr_misses::total         7254                       # number of ReadReq MSHR misses
system.icache.ReadReq_mshr_miss_latency::.cpu.inst    210213000                       # number of ReadReq MSHR miss cycles
system.icache.ReadReq_mshr_miss_latency::total    210213000                       # number of ReadReq MSHR miss cycles
system.icache.ReadReq_mshr_miss_rate::.cpu.inst     0.005607                       # mshr miss rate for ReadReq accesses
system.icache.ReadReq_mshr_miss_rate::total     0.005607                       # mshr miss rate for ReadReq accesses
system.icache.ReadReq_avg_mshr_miss_latency::.cpu.inst 28978.908189                       # average ReadReq mshr miss latency
system.icache.ReadReq_avg_mshr_miss_latency::total 28978.908189                       # average ReadReq mshr miss latency
system.icache.power_state.pwrStateResidencyTicks::UNDEFINED   3845206000                       # Cumulative time (in ticks) in various power states
system.icache.tags.tagsinuse               242.651606                       # Cycle average of tags in use
system.icache.tags.total_refs                  824060                       # Total number of references to valid blocks.
system.icache.tags.sampled_refs                  6998                       # Sample count of references to valid blocks.
system.icache.tags.avg_refs                117.756502                       # Average number of references to valid blocks.
system.icache.tags.warmup_cycle                 82000                       # Cycle when the warmup percentage was hit.
system.icache.tags.occ_blocks::.cpu.inst   242.651606                       # Average occupied blocks per requestor
system.icache.tags.occ_percent::.cpu.inst     0.947858                       # Average percentage of cache occupancy
system.icache.tags.occ_percent::total        0.947858                       # Average percentage of cache occupancy
system.icache.tags.occ_task_id_blocks::1024          256                       # Occupied blocks per task id
system.icache.tags.age_task_id_blocks_1024::2           57                       # Occupied blocks per task id
system.icache.tags.age_task_id_blocks_1024::3          199                       # Occupied blocks per task id
system.icache.tags.occ_task_id_percent::1024            1                       # Percentage of cache occupancy per task id
system.icache.tags.tag_accesses               1300884                       # Number of tag accesses
system.icache.tags.data_accesses              1300884                       # Number of data accesses
system.icache.tags.power_state.pwrStateResidencyTicks::UNDEFINED   3845206000                       # Cumulative time (in ticks) in various power states
system.membus.trans_dist::ReadReq                6234                       # Transaction distribution
system.membus.trans_dist::ReadResp               6234                       # Transaction distribution
system.membus.trans_dist::WritebackDirty          510                       # Transaction distribution
system.membus.pkt_count_system.cache_small.mem_side::system.mem_ctrl.port        12978                       # Packet count per connected master and slave (bytes)
system.membus.pkt_count_system.cache_small.mem_side::total        12978                       # Packet count per connected master and slave (bytes)
system.membus.pkt_count::total                  12978                       # Packet count per connected master and slave (bytes)
system.membus.pkt_size_system.cache_small.mem_side::system.mem_ctrl.port       431616                       # Cumulative packet size per connected master and slave (bytes)
system.membus.pkt_size_system.cache_small.mem_side::total       431616                       # Cumulative packet size per connected master and slave (bytes)
system.membus.pkt_size::total                  431616                       # Cumulative packet size per connected master and slave (bytes)
system.membus.reqLayer2.occupancy             8784000                       # Layer occupancy (ticks)
system.membus.reqLayer2.utilization               0.2                       # Layer utilization (%)
system.membus.respLayer1.occupancy           33235750                       # Layer occupancy (ticks)
system.membus.respLayer1.utilization              0.9                       # Layer utilization (%)
system.membus.power_state.pwrStateResidencyTicks::UNDEFINED   3845206000                       # Cumulative time (in ticks) in various power states
system.mem_ctrl.bytes_read::.cpu.inst          105344                       # Number of bytes read from this memory
system.mem_ctrl.bytes_read::.cpu.data          293632                       # Number of bytes read from this memory
system.mem_ctrl.bytes_read::total              398976                       # Number of bytes read from this memory
system.mem_ctrl.bytes_inst_read::.cpu.inst       105344                       # Number of instructions bytes read from this memory
system.mem_ctrl.bytes_inst_read::total         105344                       # Number of instructions bytes read from this memory
system.mem_ctrl.bytes_written::.writebacks        32640                       # Number of bytes written to this memory
system.mem_ctrl.bytes_written::total            32640                       # Number of bytes written to this memory
system.mem_ctrl.num_reads::.cpu.inst             1646                       # Number of read requests responded to by this memory
system.mem_ctrl.num_reads::.cpu.data             4588                       # Number of read requests responded to by this memory
system.mem_ctrl.num_reads::total                 6234                       # Number of read requests responded to by this memory
system.mem_ctrl.num_writes::.writebacks           510                       # Number of write requests responded to by this memory
system.mem_ctrl.num_writes::total                 510                       # Number of write requests responded to by this memory
system.mem_ctrl.bw_read::.cpu.inst           27396192                       # Total read bandwidth from this memory (bytes/s)
system.mem_ctrl.bw_read::.cpu.data           76363139                       # Total read bandwidth from this memory (bytes/s)
system.mem_ctrl.bw_read::total              103759330                       # Total read bandwidth from this memory (bytes/s)
system.mem_ctrl.bw_inst_read::.cpu.inst      27396192                       # Instruction read bandwidth from this memory (bytes/s)
system.mem_ctrl.bw_inst_read::total          27396192                       # Instruction read bandwidth from this memory (bytes/s)
system.mem_ctrl.bw_write::.writebacks         8488492                       # Write bandwidth from this memory (bytes/s)
system.mem_ctrl.bw_write::total               8488492                       # Write bandwidth from this memory (bytes/s)
system.mem_ctrl.bw_total::.writebacks         8488492                       # Total bandwidth to/from this memory (bytes/s)
system.mem_ctrl.bw_total::.cpu.inst          27396192                       # Total bandwidth to/from this memory (bytes/s)
system.mem_ctrl.bw_total::.cpu.data          76363139                       # Total bandwidth to/from this memory (bytes/s)
system.mem_ctrl.bw_total::total             112247822                       # Total bandwidth to/from this memory (bytes/s)
system.mem_ctrl.avgPriority_.writebacks::samples       507.00                       # Average QoS priority value for accepted requests
system.mem_ctrl.avgPriority_.cpu.inst::samples      1646.00                       # Average QoS priority value for accepted requests
system.mem_ctrl.avgPriority_.cpu.data::samples      4561.00                       # Average QoS priority value for accepted requests
system.mem_ctrl.priorityMinLatency       0.000000018750                       # per QoS priority minimum request to response latency (s)
system.mem_ctrl.priorityMaxLatency       0.003254164750                       # per QoS priority maximum request to response latency (s)
system.mem_ctrl.numReadWriteTurnArounds            28                       # Number of turnarounds from READ to WRITE
system.mem_ctrl.numWriteReadTurnArounds            28                       # Number of turnarounds from WRITE to READ
system.mem_ctrl.numStayReadState                13884                       # Number of times bus staying in READ state
system.mem_ctrl.numStayWriteState                 455                       # Number of times bus staying in WRITE state
system.mem_ctrl.readReqs                         6234                       # Number of read requests accepted
system.mem_ctrl.writeReqs                         510                       # Number of write requests accepted
system.mem_ctrl.readBursts                       6234                       # Number of DRAM read bursts, including those serviced by the write queue
system.mem_ctrl.writeBursts                       510                       # Number of DRAM write bursts, including those merged in the write queue
system.mem_ctrl.servicedByWrQ                      27                       # Number of DRAM read bursts serviced by the write queue
system.mem_ctrl.mergedWrBursts                      3                       # Number of DRAM write bursts merged with an existing one
system.mem_ctrl.neitherReadNorWriteReqs             0                       # Number of requests that are neither read nor write
system.mem_ctrl.perBankRdBursts::0                599                       # Per bank write bursts
system.mem_ctrl.perBankRdBursts::1                633                       # Per bank write bursts
system.mem_ctrl.perBankRdBursts::2                294                       # Per bank write bursts
system.mem_ctrl.perBankRdBursts::3                165                       # Per bank write bursts
system.mem_ctrl.perBankRdBursts::4                391                       # Per bank write bursts
system.mem_ctrl.perBankRdBursts::5                454                       # Per bank write bursts
system.mem_ctrl.perBankRdBursts::6                386                       # Per bank write bursts
system.mem_ctrl.perBankRdBursts::7                286                       # Per bank write bursts
system.mem_ctrl.perBankRdBursts::8                357                       # Per bank write bursts
system.mem_ctrl.perBankRdBursts::9                364                       # Per bank write bursts
system.mem_ctrl.perBankRdBursts::10               318                       # Per bank write bursts
system.mem_ctrl.perBankRdBursts::11               444                       # Per bank write bursts
system.mem_ctrl.perBankRdBursts::12               422                       # Per bank write bursts
system.mem_ctrl.perBankRdBursts::13               199                       # Per bank write bursts
system.mem_ctrl.perBankRdBursts::14               415                       # Per bank write bursts
system.mem_ctrl.perBankRdBursts::15               480                       # Per bank write bursts
system.mem_ctrl.perBankWrBursts::0                 90                       # Per bank write bursts
system.mem_ctrl.perBankWrBursts::1                 42                       # Per bank write bursts
system.mem_ctrl.perBankWrBursts::2                 10                       # Per bank write bursts
system.mem_ctrl.perBankWrBursts::3                  1                       # Per bank write bursts
system.mem_ctrl.perBankWrBursts::4                 37                       # Per bank write bursts
system.mem_ctrl.perBankWrBursts::5                 84                       # Per bank write bursts
system.mem_ctrl.perBankWrBursts::6                 18                       # Per bank write bursts
system.mem_ctrl.perBankWrBursts::7                 13                       # Per bank write bursts
system.mem_ctrl.perBankWrBursts::8                 14                       # Per bank write bursts
system.mem_ctrl.perBankWrBursts::9                 27                       # Per bank write bursts
system.mem_ctrl.perBankWrBursts::10                25                       # Per bank write bursts
system.mem_ctrl.perBankWrBursts::11                23                       # Per bank write bursts
system.mem_ctrl.perBankWrBursts::12                39                       # Per bank write bursts
system.mem_ctrl.perBankWrBursts::13                 0                       # Per bank write bursts
system.mem_ctrl.perBankWrBursts::14                25                       # Per bank write bursts
system.mem_ctrl.perBankWrBursts::15                33                       # Per bank write bursts
system.mem_ctrl.avgRdQLen                        1.00                       # Average read queue length when enqueuing
system.mem_ctrl.avgWrQLen                       22.45                       # Average write queue length when enqueuing
system.mem_ctrl.totQLat                      54599500                       # Total ticks spent queuing
system.mem_ctrl.totBusLat                    31035000                       # Total ticks spent in databus transfers
system.mem_ctrl.totMemAccLat                170980750                       # Total ticks spent from burst creation until serviced by the DRAM
system.mem_ctrl.avgQLat                       8796.44                       # Average queueing delay per DRAM burst
system.mem_ctrl.avgBusLat                     5000.00                       # Average bus latency per DRAM burst
system.mem_ctrl.avgMemAccLat                 27546.44                       # Average memory access latency per DRAM burst
system.mem_ctrl.numRdRetry                          0                       # Number of times read queue was full causing retry
system.mem_ctrl.numWrRetry                          0                       # Number of times write queue was full causing retry
system.mem_ctrl.readRowHits                      4515                       # Number of row buffer hits during reads
system.mem_ctrl.writeRowHits                      370                       # Number of row buffer hits during writes
system.mem_ctrl.readRowHitRate                  72.74                       # Row buffer hit rate for reads
system.mem_ctrl.writeRowHitRate                 72.98                       # Row buffer hit rate for writes
system.mem_ctrl.readPktSize::0                      0                       # Read request sizes (log2)
system.mem_ctrl.readPktSize::1                      0                       # Read request sizes (log2)
system.mem_ctrl.readPktSize::2                      0                       # Read request sizes (log2)
system.mem_ctrl.readPktSize::3                      0                       # Read request sizes (log2)
system.mem_ctrl.readPktSize::4                      0                       # Read request sizes (log2)
system.mem_ctrl.readPktSize::5                      0                       # Read request sizes (log2)
system.mem_ctrl.readPktSize::6                   6234                       # Read request sizes (log2)
system.mem_ctrl.writePktSize::0                     0                       # Write request sizes (log2)
system.mem_ctrl.writePktSize::1                     0                       # Write request sizes (log2)
system.mem_ctrl.writePktSize::2                     0                       # Write request sizes (log2)
system.mem_ctrl.writePktSize::3                     0                       # Write request sizes (log2)
system.mem_ctrl.writePktSize::4                     0                       # Write request sizes (log2)
system.mem_ctrl.writePktSize::5                     0                       # Write request sizes (log2)
system.mem_ctrl.writePktSize::6                   510                       # Write request sizes (log2)
system.mem_ctrl.rdQLenPdf::0                     6196                       # What read queue length does an incoming req see
system.mem_ctrl.rdQLenPdf::1                       11                       # What read queue length does an incoming req see
system.mem_ctrl.rdQLenPdf::2                        0                       # What read queue length does an incoming req see
system.mem_ctrl.rdQLenPdf::3                        0                       # What read queue length does an incoming req see
system.mem_ctrl.rdQLenPdf::4                        0                       # What read queue length does an incoming req see
system.mem_ctrl.rdQLenPdf::5                        0                       # What read queue length does an incoming req see
system.mem_ctrl.rdQLenPdf::6                        0                       # What read queue length does an incoming req see
system.mem_ctrl.rdQLenPdf::7                        0                       # What read queue length does an incoming req see
system.mem_ctrl.rdQLenPdf::8                        0                       # What read queue length does an incoming req see
system.mem_ctrl.rdQLenPdf::9                        0                       # What read queue length does an incoming req see
system.mem_ctrl.rdQLenPdf::10                       0                       # What read queue length does an incoming req see
system.mem_ctrl.rdQLenPdf::11                       0                       # What read queue length does an incoming req see
system.mem_ctrl.rdQLenPdf::12                       0                       # What read queue length does an incoming req see
system.mem_ctrl.rdQLenPdf::13                       0                       # What read queue length does an incoming req see
system.mem_ctrl.rdQLenPdf::14                       0                       # What read queue length does an incoming req see
system.mem_ctrl.rdQLenPdf::15                       0                       # What read queue length does an incoming req see
system.mem_ctrl.rdQLenPdf::16                       0                       # What read queue length does an incoming req see
system.mem_ctrl.rdQLenPdf::17                       0                       # What read queue length does an incoming req see
system.mem_ctrl.rdQLenPdf::18                       0                       # What read queue length does an incoming req see
system.mem_ctrl.rdQLenPdf::19                       0                       # What read queue length does an incoming req see
system.mem_ctrl.rdQLenPdf::20                       0                       # What read queue length does an incoming req see
system.mem_ctrl.rdQLenPdf::21                       0                       # What read queue length does an incoming req see
system.mem_ctrl.rdQLenPdf::22                       0                       # What read queue length does an incoming req see
system.mem_ctrl.rdQLenPdf::23                       0                       # What read queue length does an incoming req see
system.mem_ctrl.rdQLenPdf::24                       0                       # What read queue length does an incoming req see
system.mem_ctrl.rdQLenPdf::25                       0                       # What read queue length does an incoming req see
system.mem_ctrl.rdQLenPdf::26                       0                       # What read queue length does an incoming req see
system.mem_ctrl.rdQLenPdf::27                       0                       # What read queue length does an incoming req see
system.mem_ctrl.rdQLenPdf::28                       0                       # What read queue length does an incoming req see
system.mem_ctrl.rdQLenPdf::29                       0                       # What read queue length does an incoming req see
system.mem_ctrl.rdQLenPdf::30                       0                       # What read queue length does an incoming req see
system.mem_ctrl.rdQLenPdf::31                       0                       # What read queue length does an incoming req see
system.mem_ctrl.wrQLenPdf::0                        1                       # What write queue length does an incoming req see
system.mem_ctrl.wrQLenPdf::1                        1                       # What write queue length does an incoming req see
system.mem_ctrl.wrQLenPdf::2                        1                       # What write queue length does an incoming req see
system.mem_ctrl.wrQLenPdf::3                        1                       # What write queue length does an incoming req see
system.mem_ctrl.wrQLenPdf::4                        1                       # What write queue length does an incoming req see
system.mem_ctrl.wrQLenPdf::5                        1                       # What write queue length does an incoming req see
system.mem_ctrl.wrQLenPdf::6                        1                       # What write queue length does an incoming req see
system.mem_ctrl.wrQLenPdf::7                        1                       # What write queue length does an incoming req see
system.mem_ctrl.wrQLenPdf::8                        1                       # What write queue length does an incoming req see
system.mem_ctrl.wrQLenPdf::9                        1                       # What write queue length does an incoming req see
system.mem_ctrl.wrQLenPdf::10                       1                       # What write queue length does an incoming req see
system.mem_ctrl.wrQLenPdf::11                       1                       # What write queue length does an incoming req see
system.mem_ctrl.wrQLenPdf::12                       1                       # What write queue length does an incoming req see
system.mem_ctrl.wrQLenPdf::13                       1                       # What write queue length does an incoming req see
system.mem_ctrl.wrQLenPdf::14                       1                       # What write queue length does an incoming req see
system.mem_ctrl.wrQLenPdf::15                      17                       # What write queue length does an incoming req see
system.mem_ctrl.wrQLenPdf::16                      18                       # What write queue length does an incoming req see
system.mem_ctrl.wrQLenPdf::17                      29                       # What write queue length does an incoming req see
system.mem_ctrl.wrQLenPdf::18                      29                       # What write queue length does an incoming req see
system.mem_ctrl.wrQLenPdf::19                      29                       # What write queue length does an incoming req see
system.mem_ctrl.wrQLenPdf::20                      29                       # What write queue length does an incoming req see
system.mem_ctrl.wrQLenPdf::21                      29                       # What write queue length does an incoming req see
system.mem_ctrl.wrQLenPdf::22                      29                       # What write queue length does an incoming req see
system.mem_ctrl.wrQLenPdf::23                      29                       # What write queue length does an incoming req see
system.mem_ctrl.wrQLenPdf::24                      29                       # What write queue length does an incoming req see
system.mem_ctrl.wrQLenPdf::25                      29                       # What write queue length does an incoming req see
system.mem_ctrl.wrQLenPdf::26                      28                       # What write queue length does an incoming req see
system.mem_ctrl.wrQLenPdf::27                      28                       # What write queue length does an incoming req see
system.mem_ctrl.wrQLenPdf::28                      28                       # What write queue length does an incoming req see
system.mem_ctrl.wrQLenPdf::29                      28                       # What write queue length does an incoming req see
system.mem_ctrl.wrQLenPdf::30                      28                       # What write queue length does an incoming req see
system.mem_ctrl.wrQLenPdf::31                      28                       # What write queue length does an incoming req see
system.mem_ctrl.wrQLenPdf::32                      28                       # What write queue length does an incoming req see
system.mem_ctrl.wrQLenPdf::33                       0                       # What write queue length does an incoming req see
system.mem_ctrl.wrQLenPdf::34                       0                       # What write queue length does an incoming req see
system.mem_ctrl.wrQLenPdf::35                       0                       # What write queue length does an incoming req see
system.mem_ctrl.wrQLenPdf::36                       0                       # What write queue length does an incoming req see
system.mem_ctrl.wrQLenPdf::37                       0                       # What write queue length does an incoming req see
system.mem_ctrl.wrQLenPdf::38                       0                       # What write queue length does an incoming req see
system.mem_ctrl.wrQLenPdf::39                       0                       # What write queue length does an incoming req see
system.mem_ctrl.wrQLenPdf::40                       0                       # What write queue length does an incoming req see
system.mem_ctrl.wrQLenPdf::41                       0                       # What write queue length does an incoming req see
system.mem_ctrl.wrQLenPdf::42                       0                       # What write queue length does an incoming req see
system.mem_ctrl.wrQLenPdf::43                       0                       # What write queue length does an incoming req see
system.mem_ctrl.wrQLenPdf::44                       0                       # What write queue length does an incoming req see
system.mem_ctrl.wrQLenPdf::45                       0                       # What write queue length does an incoming req see
system.mem_ctrl.wrQLenPdf::46                       0                       # What write queue length does an incoming req see
system.mem_ctrl.wrQLenPdf::47                       0                       # What write queue length does an incoming req see
system.mem_ctrl.wrQLenPdf::48                       0                       # What write queue length does an incoming req see
system.mem_ctrl.wrQLenPdf::49                       0                       # What write queue length does an incoming req see
system.mem_ctrl.wrQLenPdf::50                       0                       # What write queue length does an incoming req see
system.mem_ctrl.wrQLenPdf::51                       0                       # What write queue length does an incoming req see
system.mem_ctrl.wrQLenPdf::52                       0                       # What write queue length does an incoming req see
system.mem_ctrl.wrQLenPdf::53                       0                       # What write queue length does an incoming req see
system.mem_ctrl.wrQLenPdf::54                       0                       # What write queue length does an incoming req see
system.mem_ctrl.wrQLenPdf::55                       0                       # What write queue length does an incoming req see
system.mem_ctrl.wrQLenPdf::56                       0                       # What write queue length does an incoming req see
system.mem_ctrl.wrQLenPdf::57                       0                       # What write queue length does an incoming req see
system.mem_ctrl.wrQLenPdf::58                       0                       # What write queue length does an incoming req see
system.mem_ctrl.wrQLenPdf::59                       0                       # What write queue length does an incoming req see
system.mem_ctrl.wrQLenPdf::60                       0                       # What write queue length does an incoming req see
system.mem_ctrl.wrQLenPdf::61                       0                       # What write queue length does an incoming req see
system.mem_ctrl.wrQLenPdf::62                       0                       # What write queue length does an incoming req see
system.mem_ctrl.wrQLenPdf::63                       0                       # What write queue length does an incoming req see
system.mem_ctrl.bytesPerActivate::samples         1803                       # Bytes accessed per row activation
system.mem_ctrl.bytesPerActivate::mean     237.399889                       # Bytes accessed per row activation
system.mem_ctrl.bytesPerActivate::gmean    143.496126                       # Bytes accessed per row activation
system.mem_ctrl.bytesPerActivate::stdev    282.442214                       # Bytes accessed per row activation
system.mem_ctrl.bytesPerActivate::0-127           823     45.65%     45.65% # Bytes accessed per row activation
system.mem_ctrl.bytesPerActivate::128-255          474     26.29%     71.94% # Bytes accessed per row activation
system.mem_ctrl.bytesPerActivate::256-383          164      9.10%     81.03% # Bytes accessed per row activation
system.mem_ctrl.bytesPerActivate::384-511           74      4.10%     85.14% # Bytes accessed per row activation
system.mem_ctrl.bytesPerActivate::512-639           54      3.00%     88.13% # Bytes accessed per row activation
system.mem_ctrl.bytesPerActivate::640-767           35      1.94%     90.07% # Bytes accessed per row activation
system.mem_ctrl.bytesPerActivate::768-895           26      1.44%     91.51% # Bytes accessed per row activation
system.mem_ctrl.bytesPerActivate::896-1023           17      0.94%     92.46% # Bytes accessed per row activation
system.mem_ctrl.bytesPerActivate::1024-1151          136      7.54%    100.00% # Bytes accessed per row activation
system.mem_ctrl.bytesPerActivate::total          1803                       # Bytes accessed per row activation
system.mem_ctrl.rdPerTurnAround::samples           28                       # Reads before turning the bus around for writes
system.mem_ctrl.rdPerTurnAround::mean      212.178571                       # Reads before turning the bus around for writes
system.mem_ctrl.rdPerTurnAround::gmean      89.087781                       # Reads before turning the bus around for writes
system.mem_ctrl.rdPerTurnAround::stdev     449.059680                       # Reads before turning the bus around for writes
system.mem_ctrl.rdPerTurnAround::0-127             17     60.71%     60.71% # Reads before turning the bus around for writes
system.mem_ctrl.rdPerTurnAround::128-255            5     17.86%     78.57% # Reads before turning the bus around for writes
system.mem_ctrl.rdPerTurnAround::256-383            3     10.71%     89.29% # Reads before turning the bus around for writes
system.mem_ctrl.rdPerTurnAround::384-511            1      3.57%     92.86% # Reads before turning the bus around for writes
system.mem_ctrl.rdPerTurnAround::512-639            1      3.57%     96.43% # Reads before turning the bus around for writes
system.mem_ctrl.rdPerTurnAround::2304-2431            1      3.57%    100.00% # Reads before turning the bus around for writes
system.mem_ctrl.rdPerTurnAround::total             28                       # Reads before turning the bus around for writes
system.mem_ctrl.wrPerTurnAround::samples           28                       # Writes before turning the bus around for reads
system.mem_ctrl.wrPerTurnAround::mean       17.178571                       # Writes before turning the bus around for reads
system.mem_ctrl.wrPerTurnAround::gmean      17.151034                       # Writes before turning the bus around for reads
system.mem_ctrl.wrPerTurnAround::stdev       0.983327                       # Writes before turning the bus around for reads
system.mem_ctrl.wrPerTurnAround::16                11     39.29%     39.29% # Writes before turning the bus around for reads
system.mem_ctrl.wrPerTurnAround::17                 1      3.57%     42.86% # Writes before turning the bus around for reads
system.mem_ctrl.wrPerTurnAround::18                16     57.14%    100.00% # Writes before turning the bus around for reads
system.mem_ctrl.wrPerTurnAround::total             28                       # Writes before turning the bus around for reads
system.mem_ctrl.bytesReadDRAM                  397248                       # Total number of bytes read from DRAM
system.mem_ctrl.bytesReadWrQ                     1728                       # Total number of bytes read from write queue
system.mem_ctrl.bytesWritten                    30784                       # Total number of bytes written to DRAM
system.mem_ctrl.bytesReadSys                   398976                       # Total read bytes from the system interface side
system.mem_ctrl.bytesWrittenSys                 32640                       # Total written bytes from the system interface side
system.mem_ctrl.avgRdBW                        103.31                       # Average DRAM read bandwidth in MiByte/s
system.mem_ctrl.avgWrBW                          8.01                       # Average achieved write bandwidth in MiByte/s
system.mem_ctrl.avgRdBWSys                     103.76                       # Average system read bandwidth in MiByte/s
system.mem_ctrl.avgWrBWSys                       8.49                       # Average system write bandwidth in MiByte/s
system.mem_ctrl.peakBW                       12800.00                       # Theoretical peak bandwidth in MiByte/s
system.mem_ctrl.busUtil                          0.87                       # Data bus utilization in percentage
system.mem_ctrl.busUtilRead                      0.81                       # Data bus utilization in percentage for reads
system.mem_ctrl.busUtilWrite                     0.06                       # Data bus utilization in percentage for writes
system.mem_ctrl.totGap                     3491474000                       # Total gap between requests
system.mem_ctrl.avgGap                      517715.60                       # Average gap between requests
system.mem_ctrl.masterReadBytes::.cpu.inst       105344                       # Per-master bytes read from memory
system.mem_ctrl.masterReadBytes::.cpu.data       291904                       # Per-master bytes read from memory
system.mem_ctrl.masterWriteBytes::.writebacks        30784                       # Per-master bytes write to memory
system.mem_ctrl.masterReadRate::.cpu.inst 27396191.517437558621                       # Per-master bytes read from memory rate (Bytes/sec)
system.mem_ctrl.masterReadRate::.cpu.data 75913748.184102490544                       # Per-master bytes read from memory rate (Bytes/sec)
system.mem_ctrl.masterWriteRate::.writebacks 8005812.952544025145                       # Per-master bytes write to memory rate (Bytes/sec)
system.mem_ctrl.masterReadAccesses::.cpu.inst         1646                       # Per-master read serviced memory accesses
system.mem_ctrl.masterReadAccesses::.cpu.data         4588                       # Per-master read serviced memory accesses
system.mem_ctrl.masterWriteAccesses::.writebacks          510                       # Per-master write serviced memory accesses
system.mem_ctrl.masterReadTotalLat::.cpu.inst     46842250                       # Per-master read total memory access latency
system.mem_ctrl.masterReadTotalLat::.cpu.data    124138500                       # Per-master read total memory access latency
system.mem_ctrl.masterWriteTotalLat::.writebacks  60901084000                       # Per-master write total memory access latency
system.mem_ctrl.masterReadAvgLat::.cpu.inst     28458.23                       # Per-master read average memory access latency
system.mem_ctrl.masterReadAvgLat::.cpu.data     27057.21                       # Per-master read average memory access latency
system.mem_ctrl.masterWriteAvgLat::.writebacks 119413890.20                       # Per-master write average memory access latency
system.mem_ctrl.pageHitRate                     72.76                       # Row buffer hit rate, read and write combined
system.mem_ctrl.rank1.actEnergy               6611640                       # Energy for activate commands per rank (pJ)
system.mem_ctrl.rank1.preEnergy               3514170                       # Energy for precharge commands per rank (pJ)
system.mem_ctrl.rank1.readEnergy             21412860                       # Energy for read commands per rank (pJ)
system.mem_ctrl.rank1.writeEnergy              970920                       # Energy for write commands per rank (pJ)
system.mem_ctrl.rank1.refreshEnergy      303017520.000000                       # Energy for refresh commands per rank (pJ)
system.mem_ctrl.rank1.actBackEnergy         644484180                       # Energy for active background per rank (pJ)
system.mem_ctrl.rank1.preBackEnergy         933835680                       # Energy for precharge background per rank (pJ)
system.mem_ctrl.rank1.actPowerDownEnergy            0                       # Energy for active power-down per rank (pJ)
system.mem_ctrl.rank1.prePowerDownEnergy            0                       # Energy for precharge power-down per rank (pJ)
system.mem_ctrl.rank1.selfRefreshEnergy             0                       # Energy for self refresh per rank (pJ)
system.mem_ctrl.rank1.totalEnergy          1913846970                       # Total energy per rank (pJ)
system.mem_ctrl.rank1.averagePower         497.722871                       # Core power per rank (mW)
system.mem_ctrl.rank1.totalIdleTime                 0                       # Total Idle time Per DRAM Rank
system.mem_ctrl.rank1.memoryStateTime::IDLE   2421161750                       # Time in different power states
system.mem_ctrl.rank1.memoryStateTime::REF    128180000                       # Time in different power states
system.mem_ctrl.rank1.memoryStateTime::SREF            0                       # Time in different power states
system.mem_ctrl.rank1.memoryStateTime::PRE_PDN            0                       # Time in different power states
system.mem_ctrl.rank1.memoryStateTime::ACT   1295864250                       # Time in different power states
system.mem_ctrl.rank1.memoryStateTime::ACT_PDN            0                       # Time in different power states
system.mem_ctrl.rank0.actEnergy               6261780                       # Energy for activate commands per rank (pJ)
system.mem_ctrl.rank0.preEnergy               3328215                       # Energy for precharge commands per rank (pJ)
system.mem_ctrl.rank0.readEnergy             22905120                       # Energy for read commands per rank (pJ)
system.mem_ctrl.rank0.writeEnergy             1539900                       # Energy for write commands per rank (pJ)
system.mem_ctrl.rank0.refreshEnergy      303017520.000000                       # Energy for refresh commands per rank (pJ)
system.mem_ctrl.rank0.actBackEnergy         775647450                       # Energy for active background per rank (pJ)
system.mem_ctrl.rank0.preBackEnergy         823382400                       # Energy for precharge background per rank (pJ)
system.mem_ctrl.rank0.actPowerDownEnergy            0                       # Energy for active power-down per rank (pJ)
system.mem_ctrl.rank0.prePowerDownEnergy            0                       # Energy for precharge power-down per rank (pJ)
system.mem_ctrl.rank0.selfRefreshEnergy             0                       # Energy for self refresh per rank (pJ)
system.mem_ctrl.rank0.totalEnergy          1936082385                       # Total energy per rank (pJ)
system.mem_ctrl.rank0.averagePower         503.505504                       # Core power per rank (mW)
system.mem_ctrl.rank0.totalIdleTime                 0                       # Total Idle time Per DRAM Rank
system.mem_ctrl.rank0.memoryStateTime::IDLE   2132050000                       # Time in different power states
system.mem_ctrl.rank0.memoryStateTime::REF    128180000                       # Time in different power states
system.mem_ctrl.rank0.memoryStateTime::SREF            0                       # Time in different power states
system.mem_ctrl.rank0.memoryStateTime::PRE_PDN            0                       # Time in different power states
system.mem_ctrl.rank0.memoryStateTime::ACT   1584976000                       # Time in different power states
system.mem_ctrl.rank0.memoryStateTime::ACT_PDN            0                       # Time in different power states
system.mem_ctrl.power_state.pwrStateResidencyTicks::UNDEFINED   3845206000                       # Cumulative time (in ticks) in various power states
system.cache_medium.blocked_cycles::no_mshrs            0                       # number of cycles access was blocked
system.cache_medium.blocked_cycles::no_targets            0                       # number of cycles access was blocked
system.cache_medium.blocked::no_mshrs               0                       # number of cycles access was blocked
system.cache_medium.blocked::no_targets             0                       # number of cycles access was blocked
system.cache_medium.avg_blocked_cycles::no_mshrs          nan                       # average number of cycles each access was blocked
system.cache_medium.avg_blocked_cycles::no_targets          nan                       # average number of cycles each access was blocked
system.cache_medium.replacements                    0                       # number of replacements
system.cache_medium.power_state.pwrStateResidencyTicks::UNDEFINED   3845206000                       # Cumulative time (in ticks) in various power states
system.cache_medium.tags.tagsinuse                  0                       # Cycle average of tags in use
system.cache_medium.tags.total_refs                 0                       # Total number of references to valid blocks.
system.cache_medium.tags.sampled_refs               0                       # Sample count of references to valid blocks.
system.cache_medium.tags.avg_refs                 nan                       # Average number of references to valid blocks.
system.cache_medium.tags.warmup_cycle               0                       # Cycle when the warmup percentage was hit.
system.cache_medium.tags.tag_accesses               0                       # Number of tag accesses
system.cache_medium.tags.data_accesses              0                       # Number of data accesses
system.cache_medium.tags.power_state.pwrStateResidencyTicks::UNDEFINED   3845206000                       # Cumulative time (in ticks) in various power states
system.clk_domain.clock                          1000                       # Clock period in ticks
system.clk_domain.voltage_domain.voltage            1                       # Voltage in Volts
system.dcache.demand_hits::.cpu.data           303914                       # number of demand (read+write) hits
system.dcache.demand_hits::total               303914                       # number of demand (read+write) hits
system.dcache.overall_hits::.cpu.data          304599                       # number of overall hits
system.dcache.overall_hits::total              304599                       # number of overall hits
system.dcache.demand_misses::.cpu.data           8468                       # number of demand (read+write) misses
system.dcache.demand_misses::total               8468                       # number of demand (read+write) misses
system.dcache.overall_misses::.cpu.data          8750                       # number of overall misses
system.dcache.overall_misses::total              8750                       # number of overall misses
system.dcache.demand_miss_latency::.cpu.data    415213000                       # number of demand (read+write) miss cycles
system.dcache.demand_miss_latency::total    415213000                       # number of demand (read+write) miss cycles
system.dcache.overall_miss_latency::.cpu.data    424450000                       # number of overall miss cycles
system.dcache.overall_miss_latency::total    424450000                       # number of overall miss cycles
system.dcache.demand_accesses::.cpu.data       312382                       # number of demand (read+write) accesses
system.dcache.demand_accesses::total           312382                       # number of demand (read+write) accesses
system.dcache.overall_accesses::.cpu.data       313349                       # number of overall (read+write) accesses
system.dcache.overall_accesses::total          313349                       # number of overall (read+write) accesses
system.dcache.demand_miss_rate::.cpu.data     0.027108                       # miss rate for demand accesses
system.dcache.demand_miss_rate::total        0.027108                       # miss rate for demand accesses
system.dcache.overall_miss_rate::.cpu.data     0.027924                       # miss rate for overall accesses
system.dcache.overall_miss_rate::total       0.027924                       # miss rate for overall accesses
system.dcache.demand_avg_miss_latency::.cpu.data 49033.183751                       # average overall miss latency
system.dcache.demand_avg_miss_latency::total 49033.183751                       # average overall miss latency
system.dcache.overall_avg_miss_latency::.cpu.data 48508.571429                       # average overall miss latency
system.dcache.overall_avg_miss_latency::total 48508.571429                       # average overall miss latency
system.dcache.blocked_cycles::no_mshrs              0                       # number of cycles access was blocked
system.dcache.blocked_cycles::no_targets            0                       # number of cycles access was blocked
system.dcache.blocked::no_mshrs                     0                       # number of cycles access was blocked
system.dcache.blocked::no_targets                   0                       # number of cycles access was blocked
system.dcache.avg_blocked_cycles::no_mshrs          nan                       # average number of cycles each access was blocked
system.dcache.avg_blocked_cycles::no_targets          nan                       # average number of cycles each access was blocked
system.dcache.writebacks::.writebacks            5498                       # number of writebacks
system.dcache.writebacks::total                  5498                       # number of writebacks
system.dcache.demand_mshr_misses::.cpu.data         8468                       # number of demand (read+write) MSHR misses
system.dcache.demand_mshr_misses::total          8468                       # number of demand (read+write) MSHR misses
system.dcache.overall_mshr_misses::.cpu.data         8750                       # number of overall MSHR misses
system.dcache.overall_mshr_misses::total         8750                       # number of overall MSHR misses
system.dcache.demand_mshr_miss_latency::.cpu.data    398279000                       # number of demand (read+write) MSHR miss cycles
system.dcache.demand_mshr_miss_latency::total    398279000                       # number of demand (read+write) MSHR miss cycles
[...]
system.dcache.tags.age_task_id_blocks_1024::1           20                       # Occupied blocks per task id
system.dcache.tags.age_task_id_blocks_1024::2          235                       # Occupied blocks per task id
system.dcache.tags.age_task_id_blocks_1024::3            1                       # Occupied blocks per task id
system.dcache.tags.occ_task_id_percent::1024            1                       # Percentage of cache occupancy per task id
system.dcache.tags.tag_accesses               2770541                       # Number of tag accesses
system.dcache.tags.data_accesses              2770541                       # Number of data accesses
system.dcache.tags.power_state.pwrStateResidencyTicks::UNDEFINED  29770117000                       # Cumulative time (in ticks) in various power states
system.cache_large.blocked_cycles::no_mshrs            0                       # number of cycles access was blocked
system.cache_large.blocked_cycles::no_targets            0                       # number of cycles access was blocked
system.cache_large.blocked::no_mshrs                0                       # number of cycles access was blocked
system.cache_large.blocked::no_targets              0                       # number of cycles access was blocked
system.cache_large.avg_blocked_cycles::no_mshrs          nan                       # average number of cycles each access was blocked
system.cache_large.avg_blocked_cycles::no_targets          nan                       # average number of cycles each access was blocked
system.cache_large.replacements                     0                       # number of replacements
system.cache_large.power_state.pwrStateResidencyTicks::UNDEFINED  29770117000                       # Cumulative time (in ticks) in various power states
system.cache_large.tags.tagsinuse                   0                       # Cycle average of tags in use
system.cache_large.tags.total_refs                  0                       # Total number of references to valid blocks.
system.cache_large.tags.sampled_refs                0                       # Sample count of references to valid blocks.
system.cache_large.tags.avg_refs                  nan                       # Average number of references to valid blocks.
system.cache_large.tags.warmup_cycle                0                       # Cycle when the warmup percentage was hit.
system.cache_large.tags.tag_accesses                0                       # Number of tag accesses
system.cache_large.tags.data_accesses               0                       # Number of data accesses
system.cache_large.tags.power_state.pwrStateResidencyTicks::UNDEFINED  29770117000                       # Cumulative time (in ticks) in various power states
system.l2cache.demand_hits::.cpu.inst           71868                       # number of demand (read+write) hits
system.l2cache.demand_hits::.cpu.data           33466                       # number of demand (read+write) hits
system.l2cache.demand_hits::total              105334                       # number of demand (read+write) hits
system.l2cache.overall_hits::.cpu.inst          71868                       # number of overall hits
system.l2cache.overall_hits::.cpu.data          33466                       # number of overall hits
system.l2cache.overall_hits::total             105334                       # number of overall hits
system.l2cache.demand_misses::.cpu.inst         65393                       # number of demand (read+write) misses
system.l2cache.demand_misses::.cpu.data         69613                       # number of demand (read+write) misses
system.l2cache.demand_misses::total            135006                       # number of demand (read+write) misses
system.l2cache.overall_misses::.cpu.inst        65393                       # number of overall misses
system.l2cache.overall_misses::.cpu.data        69613                       # number of overall misses
system.l2cache.overall_misses::total           135006                       # number of overall misses
system.l2cache.demand_miss_latency::.cpu.inst   1179476000                       # number of demand (read+write) miss cycles
system.l2cache.demand_miss_latency::.cpu.data   2758527000                       # number of demand (read+write) miss cycles
system.l2cache.demand_miss_latency::total   3938003000                       # number of demand (read+write) miss cycles
system.l2cache.overall_miss_latency::.cpu.inst   1179476000                       # number of overall miss cycles
system.l2cache.overall_miss_latency::.cpu.data   2758527000                       # number of overall miss cycles
system.l2cache.overall_miss_latency::total   3938003000                       # number of overall miss cycles
system.l2cache.demand_accesses::.cpu.inst       137261                       # number of demand (read+write) accesses
system.l2cache.demand_accesses::.cpu.data       103079                       # number of demand (read+write) accesses
system.l2cache.demand_accesses::total          240340                       # number of demand (read+write) accesses
system.l2cache.overall_accesses::.cpu.inst       137261                       # number of overall (read+write) accesses
system.l2cache.overall_accesses::.cpu.data       103079                       # number of overall (read+write) accesses
system.l2cache.overall_accesses::total         240340                       # number of overall (read+write) accesses
system.l2cache.demand_miss_rate::.cpu.inst     0.476414                       # miss rate for demand accesses
system.l2cache.demand_miss_rate::.cpu.data     0.675336                       # miss rate for demand accesses
system.l2cache.demand_miss_rate::total       0.561729                       # miss rate for demand accesses
system.l2cache.overall_miss_rate::.cpu.inst     0.476414                       # miss rate for overall accesses
system.l2cache.overall_miss_rate::.cpu.data     0.675336                       # miss rate for overall accesses
system.l2cache.overall_miss_rate::total      0.561729                       # miss rate for overall accesses
system.l2cache.demand_avg_miss_latency::.cpu.inst 18036.731760                       # average overall miss latency
system.l2cache.demand_avg_miss_latency::.cpu.data 39626.607099                       # average overall miss latency
system.l2cache.demand_avg_miss_latency::total 29169.096188                       # average overall miss latency
system.l2cache.overall_avg_miss_latency::.cpu.inst 18036.731760                       # average overall miss latency
system.l2cache.overall_avg_miss_latency::.cpu.data 39626.607099                       # average overall miss latency
system.l2cache.overall_avg_miss_latency::total 29169.096188                       # average overall miss latency
system.l2cache.blocked_cycles::no_mshrs             0                       # number of cycles access was blocked
system.l2cache.blocked_cycles::no_targets            0                       # number of cycles access was blocked
system.l2cache.blocked::no_mshrs                    0                       # number of cycles access was blocked
system.l2cache.blocked::no_targets                  0                       # number of cycles access was blocked
system.l2cache.avg_blocked_cycles::no_mshrs          nan                       # average number of cycles each access was blocked
system.l2cache.avg_blocked_cycles::no_targets          nan                       # average number of cycles each access was blocked
system.l2cache.writebacks::.writebacks          44902                       # number of writebacks
system.l2cache.writebacks::total                44902                       # number of writebacks
system.l2cache.demand_mshr_misses::.cpu.inst        65393                       # number of demand (read+write) MSHR misses
system.l2cache.demand_mshr_misses::.cpu.data        69613                       # number of demand (read+write) MSHR misses
system.l2cache.demand_mshr_misses::total       135006                       # number of demand (read+write) MSHR misses
system.l2cache.overall_mshr_misses::.cpu.inst        65393                       # number of overall MSHR misses
system.l2cache.overall_mshr_misses::.cpu.data        69613                       # number of overall MSHR misses
system.l2cache.overall_mshr_misses::total       135006                       # number of overall MSHR misses
system.l2cache.demand_mshr_miss_latency::.cpu.inst   1048690000                       # number of demand (read+write) MSHR miss cycles
system.l2cache.demand_mshr_miss_latency::.cpu.data   2619301000                       # number of demand (read+write) MSHR miss cycles
system.l2cache.demand_mshr_miss_latency::total   3667991000                       # number of demand (read+write) MSHR miss cycles
system.l2cache.overall_mshr_miss_latency::.cpu.inst   1048690000                       # number of overall MSHR miss cycles
system.l2cache.overall_mshr_miss_latency::.cpu.data   2619301000                       # number of overall MSHR miss cycles
system.l2cache.overall_mshr_miss_latency::total   3667991000                       # number of overall MSHR miss cycles
system.l2cache.demand_mshr_miss_rate::.cpu.inst     0.476414                       # mshr miss rate for demand accesses
system.l2cache.demand_mshr_miss_rate::.cpu.data     0.675336                       # mshr miss rate for demand accesses
system.l2cache.demand_mshr_miss_rate::total     0.561729                       # mshr miss rate for demand accesses
system.l2cache.overall_mshr_miss_rate::.cpu.inst     0.476414                       # mshr miss rate for overall accesses
system.l2cache.overall_mshr_miss_rate::.cpu.data     0.675336                       # mshr miss rate for overall accesses
system.l2cache.overall_mshr_miss_rate::total     0.561729                       # mshr miss rate for overall accesses
system.l2cache.demand_avg_mshr_miss_latency::.cpu.inst 16036.731760                       # average overall mshr miss latency
system.l2cache.demand_avg_mshr_miss_latency::.cpu.data 37626.607099                       # average overall mshr miss latency
system.l2cache.demand_avg_mshr_miss_latency::total 27169.096188                       # average overall mshr miss latency
system.l2cache.overall_avg_mshr_miss_latency::.cpu.inst 16036.731760                       # average overall mshr miss latency
system.l2cache.overall_avg_mshr_miss_latency::.cpu.data 37626.607099                       # average overall mshr miss latency
system.l2cache.overall_avg_mshr_miss_latency::total 27169.096188                       # average overall mshr miss latency
system.l2cache.replacements                    161841                       # number of replacements
system.l2cache.ReadReq_hits::.cpu.inst          71868                       # number of ReadReq hits
system.l2cache.ReadReq_hits::.cpu.data          33466                       # number of ReadReq hits
system.l2cache.ReadReq_hits::total             105334                       # number of ReadReq hits
system.l2cache.ReadReq_misses::.cpu.inst        65393                       # number of ReadReq misses
system.l2cache.ReadReq_misses::.cpu.data        69613                       # number of ReadReq misses
system.l2cache.ReadReq_misses::total           135006                       # number of ReadReq misses
system.l2cache.ReadReq_miss_latency::.cpu.inst   1179476000                       # number of ReadReq miss cycles
system.l2cache.ReadReq_miss_latency::.cpu.data   2758527000                       # number of ReadReq miss cycles
system.l2cache.ReadReq_miss_latency::total   3938003000                       # number of ReadReq miss cycles
system.l2cache.ReadReq_accesses::.cpu.inst       137261                       # number of ReadReq accesses(hits+misses)
system.l2cache.ReadReq_accesses::.cpu.data       103079                       # number of ReadReq accesses(hits+misses)
system.l2cache.ReadReq_accesses::total         240340                       # number of ReadReq accesses(hits+misses)
system.l2cache.ReadReq_miss_rate::.cpu.inst     0.476414                       # miss rate for ReadReq accesses
system.l2cache.ReadReq_miss_rate::.cpu.data     0.675336                       # miss rate for ReadReq accesses
system.l2cache.ReadReq_miss_rate::total      0.561729                       # miss rate for ReadReq accesses
system.l2cache.ReadReq_avg_miss_latency::.cpu.inst 18036.731760                       # average ReadReq miss latency
system.l2cache.ReadReq_avg_miss_latency::.cpu.data 39626.607099                       # average ReadReq miss latency
system.l2cache.ReadReq_avg_miss_latency::total 29169.096188                       # average ReadReq miss latency
system.l2cache.ReadReq_mshr_misses::.cpu.inst        65393                       # number of ReadReq MSHR misses
system.l2cache.ReadReq_mshr_misses::.cpu.data        69613                       # number of ReadReq MSHR misses
system.l2cache.ReadReq_mshr_misses::total       135006                       # number of ReadReq MSHR misses
system.l2cache.ReadReq_mshr_miss_latency::.cpu.inst   1048690000                       # number of ReadReq MSHR miss cycles
system.l2cache.ReadReq_mshr_miss_latency::.cpu.data   2619301000                       # number of ReadReq MSHR miss cycles
system.l2cache.ReadReq_mshr_miss_latency::total   3667991000                       # number of ReadReq MSHR miss cycles
system.l2cache.ReadReq_mshr_miss_rate::.cpu.inst     0.476414                       # mshr miss rate for ReadReq accesses
system.l2cache.ReadReq_mshr_miss_rate::.cpu.data     0.675336                       # mshr miss rate for ReadReq accesses
system.l2cache.ReadReq_mshr_miss_rate::total     0.561729                       # mshr miss rate for ReadReq accesses
system.l2cache.ReadReq_avg_mshr_miss_latency::.cpu.inst 16036.731760                       # average ReadReq mshr miss latency
system.l2cache.ReadReq_avg_mshr_miss_latency::.cpu.data 37626.607099                       # average ReadReq mshr miss latency
system.l2cache.ReadReq_avg_mshr_miss_latency::total 27169.096188                       # average ReadReq mshr miss latency
system.l2cache.WritebackDirty_hits::.writebacks        52259                       # number of WritebackDirty hits
system.l2cache.WritebackDirty_hits::total        52259                       # number of WritebackDirty hits
system.l2cache.WritebackDirty_accesses::.writebacks        52259                       # number of WritebackDirty accesses(hits+misses)
system.l2cache.WritebackDirty_accesses::total        52259                       # number of WritebackDirty accesses(hits+misses)
system.l2cache.power_state.pwrStateResidencyTicks::UNDEFINED  29770117000                       # Cumulative time (in ticks) in various power states
system.l2cache.tags.tagsinuse              510.858316                       # Cycle average of tags in use
system.l2cache.tags.total_refs                 292599                       # Total number of references to valid blocks.
system.l2cache.tags.sampled_refs               162353                       # Sample count of references to valid blocks.
system.l2cache.tags.avg_refs                 1.802240                       # Average number of references to valid blocks.
system.l2cache.tags.warmup_cycle                78000                       # Cycle when the warmup percentage was hit.
system.l2cache.tags.occ_blocks::.writebacks   123.097207                       # Average occupied blocks per requestor
system.l2cache.tags.occ_blocks::.cpu.inst   127.759276                       # Average occupied blocks per requestor
system.l2cache.tags.occ_blocks::.cpu.data   260.001833                       # Average occupied blocks per requestor
system.l2cache.tags.occ_percent::.writebacks     0.240424                       # Average percentage of cache occupancy
system.l2cache.tags.occ_percent::.cpu.inst     0.249530                       # Average percentage of cache occupancy
system.l2cache.tags.occ_percent::.cpu.data     0.507816                       # Average percentage of cache occupancy
system.l2cache.tags.occ_percent::total       0.997770                       # Average percentage of cache occupancy
system.l2cache.tags.occ_task_id_blocks::1024          512                       # Occupied blocks per task id
system.l2cache.tags.age_task_id_blocks_1024::1           14                       # Occupied blocks per task id
system.l2cache.tags.age_task_id_blocks_1024::2          423                       # Occupied blocks per task id
system.l2cache.tags.age_task_id_blocks_1024::3           75                       # Occupied blocks per task id
system.l2cache.tags.occ_task_id_percent::1024            1                       # Percentage of cache occupancy per task id
system.l2cache.tags.tag_accesses               454952                       # Number of tag accesses
system.l2cache.tags.data_accesses              454952                       # Number of data accesses
system.l2cache.tags.power_state.pwrStateResidencyTicks::UNDEFINED  29770117000                       # Cumulative time (in ticks) in various power states
system.l2bar.trans_dist::ReadReq               240340                       # Transaction distribution
system.l2bar.trans_dist::ReadResp              240340                       # Transaction distribution
system.l2bar.trans_dist::WritebackDirty         52259                       # Transaction distribution
system.l2bar.pkt_count_system.dcache.mem_side::system.l2cache.cpu_side       258417                       # Packet count per connected master and slave (bytes)
system.l2bar.pkt_count_system.icache.mem_side::system.l2cache.cpu_side       274522                       # Packet count per connected master and slave (bytes)
system.l2bar.pkt_count::total                  532939                       # Packet count per connected master and slave (bytes)
system.l2bar.pkt_size_system.dcache.mem_side::system.l2cache.cpu_side      9941632                       # Cumulative packet size per connected master and slave (bytes)
system.l2bar.pkt_size_system.icache.mem_side::system.l2cache.cpu_side      8784704                       # Cumulative packet size per connected master and slave (bytes)
system.l2bar.pkt_size::total                 18726336                       # Cumulative packet size per connected master and slave (bytes)
system.l2bar.respLayer1.occupancy           686305000                       # Layer occupancy (ticks)
system.l2bar.respLayer1.utilization               2.3                       # Layer utilization (%)
system.l2bar.reqLayer0.occupancy            501635000                       # Layer occupancy (ticks)
system.l2bar.reqLayer0.utilization                1.7                       # Layer utilization (%)
system.l2bar.respLayer0.occupancy           515395000                       # Layer occupancy (ticks)
system.l2bar.respLayer0.utilization               1.7                       # Layer utilization (%)
system.l2bar.power_state.pwrStateResidencyTicks::UNDEFINED  29770117000                       # Cumulative time (in ticks) in various power states
system.cpu.dtb.walker.power_state.pwrStateResidencyTicks::UNDEFINED  29770117000                       # Cumulative time (in ticks) in various power states
system.cpu.interrupts.clk_domain.clock          16000                       # Clock period in ticks
system.cpu.itb.walker.power_state.pwrStateResidencyTicks::UNDEFINED  29770117000                       # Cumulative time (in ticks) in various power states
system.cpu.power_state.numTransitions               1                       # Number of power state transitions
system.cpu.power_state.pwrStateResidencyTicks::ON  29770117000                       # Cumulative time (in ticks) in various power states

---------- End Simulation Statistics   ----------
