
---------- Begin Simulation Statistics ----------
final_tick                                12294993000                       # Number of ticks from beginning of simulation (restored from checkpoints and never reset)
host_inst_rate                                 308283                       # Simulator instruction rate (inst/s)
host_mem_usage                                 793320                       # Number of bytes of host memory used
host_op_rate                                   366657                       # Simulator op (including micro ops) rate (op/s)
host_seconds                                     3.24                       # Real time elapsed on the host
host_tick_rate                             3790176641                       # Simulator tick rate (ticks/s)
sim_freq                                 1000000000000                       # Frequency of simulated ticks
sim_insts                                     1000002                       # Number of instructions simulated
sim_ops                                       1189396                       # Number of ops (including micro ops) simulated
sim_seconds                                  0.012295                       # Number of seconds simulated
sim_ticks                                 12294993000                       # Number of ticks simulated
system.cpu.Branches                             47286                       # Number of branches fetched
system.cpu.committedInsts                     1000002                       # Number of instructions committed
system.cpu.committedOps                       1189396                       # Number of ops (including micro ops) committed
system.cpu.dtb.rdAccesses                        4335                       # TLB accesses on read requests
system.cpu.dtb.rdMisses                            16                       # TLB misses on read requests
system.cpu.dtb.wrAccesses                      858060                       # TLB accesses on write requests
system.cpu.dtb.wrMisses                          3347                       # TLB misses on write requests
system.cpu.idle_fraction                            0                       # Percentage of idle cycles
system.cpu.itb.rdAccesses                           0                       # TLB accesses on read requests
system.cpu.itb.rdMisses                             0                       # TLB misses on read requests
system.cpu.itb.wrAccesses                     1563668                       # TLB accesses on write requests
system.cpu.itb.wrMisses                            47                       # TLB misses on write requests
system.cpu.not_idle_fraction                        1                       # Percentage of non-idle cycles
system.cpu.numCycles                         12294986                       # number of cpu cycles simulated
system.cpu.numWorkItemsCompleted                    0                       # number of work items this cpu completed
system.cpu.numWorkItemsStarted                      0                       # number of work items this cpu started
system.cpu.num_busy_cycles                   12294986                       # Number of busy cycles
system.cpu.num_cc_register_reads               235911                       # number of times the CC registers were read
system.cpu.num_cc_register_writes              181814                       # number of times the CC registers were written
system.cpu.num_conditional_control_insts        46287                       # number of instructions that are conditional controls
system.cpu.num_fp_alu_accesses                 811640                       # Number of float alu accesses
system.cpu.num_fp_insts                        811640                       # number of float instructions
system.cpu.num_fp_register_reads               812152                       # number of times the floating registers were read
system.cpu.num_fp_register_writes                 609                       # number of times the floating registers were written
system.cpu.num_func_calls                         651                       # number of times a function call or return occured
system.cpu.num_idle_cycles                          0                       # Number of idle cycles
system.cpu.num_int_alu_accesses               1190348                       # Number of integer alu accesses
system.cpu.num_int_insts                      1190348                       # number of integer instructions
system.cpu.num_int_register_reads             3021944                       # number of times the integer registers were read
system.cpu.num_int_register_writes             285190                       # number of times the integer registers were written
system.cpu.num_load_insts                        4320                       # Number of load instructions
system.cpu.num_mem_refs                        862379                       # number of memory refs
system.cpu.num_store_insts                     858059                       # Number of store instructions
system.cpu.num_vec_alu_accesses                     0                       # Number of vector alu accesses
system.cpu.num_vec_insts                            0                       # number of vector instructions
system.cpu.num_vec_register_reads                   0                       # number of times the vector registers were read
system.cpu.num_vec_register_writes                  0                       # number of times the vector registers were written
system.cpu.op_class::No_OpClass                   186      0.02%      0.02% # Class of executed instruction
system.cpu.op_class::IntAlu                    327851     27.53%     27.54% # Class of executed instruction
system.cpu.op_class::IntMult                       29      0.00%     27.54% # Class of executed instruction
system.cpu.op_class::IntDiv                        70      0.01%     27.55% # Class of executed instruction
system.cpu.op_class::FloatAdd                      19      0.00%     27.55% # Class of executed instruction
system.cpu.op_class::FloatCmp                       0      0.00%     27.55% # Class of executed instruction
system.cpu.op_class::FloatCvt                       0      0.00%     27.55% # Class of executed instruction
system.cpu.op_class::FloatMult                      0      0.00%     27.55% # Class of executed instruction
system.cpu.op_class::FloatMultAcc                   0      0.00%     27.55% # Class of executed instruction
system.cpu.op_class::FloatDiv                       0      0.00%     27.55% # Class of executed instruction
system.cpu.op_class::FloatMisc                      0      0.00%     27.55% # Class of executed instruction
system.cpu.op_class::FloatSqrt                      0      0.00%     27.55% # Class of executed instruction
system.cpu.op_class::SimdAdd                        0      0.00%     27.55% # Class of executed instruction
system.cpu.op_class::SimdAddAcc                     0      0.00%     27.55% # Class of executed instruction
system.cpu.op_class::SimdAlu                      152      0.01%     27.56% # Class of executed instruction
system.cpu.op_class::SimdCmp                        0      0.00%     27.56% # Class of executed instruction
system.cpu.op_class::SimdCvt                      158      0.01%     27.58% # Class of executed instruction
system.cpu.op_class::SimdMisc                     221      0.02%     27.60% # Class of executed instruction
system.cpu.op_class::SimdMult                       0      0.00%     27.60% # Class of executed instruction
system.cpu.op_class::SimdMultAcc                    0      0.00%     27.60% # Class of executed instruction
system.cpu.op_class::SimdShift                      0      0.00%     27.60% # Class of executed instruction
system.cpu.op_class::SimdShiftAcc                   0      0.00%     27.60% # Class of executed instruction
system.cpu.op_class::SimdDiv                        0      0.00%     27.60% # Class of executed instruction
system.cpu.op_class::SimdSqrt                       0      0.00%     27.60% # Class of executed instruction
system.cpu.op_class::SimdFloatAdd                   0      0.00%     27.60% # Class of executed instruction
system.cpu.op_class::SimdFloatAlu                   0      0.00%     27.60% # Class of executed instruction
system.cpu.op_class::SimdFloatCmp                   0      0.00%     27.60% # Class of executed instruction
system.cpu.op_class::SimdFloatCvt                   2      0.00%     27.60% # Class of executed instruction
system.cpu.op_class::SimdFloatDiv                   0      0.00%     27.60% # Class of executed instruction
system.cpu.op_class::SimdFloatMisc                  0      0.00%     27.60% # Class of executed instruction
system.cpu.op_class::SimdFloatMult                  0      0.00%     27.60% # Class of executed instruction
system.cpu.op_class::SimdFloatMultAcc               0      0.00%     27.60% # Class of executed instruction
system.cpu.op_class::SimdFloatSqrt                  0      0.00%     27.60% # Class of executed instruction
system.cpu.op_class::SimdReduceAdd                  0      0.00%     27.60% # Class of executed instruction
system.cpu.op_class::SimdReduceAlu                  0      0.00%     27.60% # Class of executed instruction
system.cpu.op_class::SimdReduceCmp                  0      0.00%     27.60% # Class of executed instruction
system.cpu.op_class::SimdFloatReduceAdd             0      0.00%     27.60% # Class of executed instruction
system.cpu.op_class::SimdFloatReduceCmp             0      0.00%     27.60% # Class of executed instruction
system.cpu.op_class::SimdAes                        0      0.00%     27.60% # Class of executed instruction
system.cpu.op_class::SimdAesMix                     0      0.00%     27.60% # Class of executed instruction
system.cpu.op_class::SimdSha1Hash                   0      0.00%     27.60% # Class of executed instruction
system.cpu.op_class::SimdSha1Hash2                  0      0.00%     27.60% # Class of executed instruction
system.cpu.op_class::SimdSha256Hash                 0      0.00%     27.60% # Class of executed instruction
system.cpu.op_class::SimdSha256Hash2                0      0.00%     27.60% # Class of executed instruction
system.cpu.op_class::SimdShaSigma2                  0      0.00%     27.60% # Class of executed instruction
system.cpu.op_class::SimdShaSigma3                  0      0.00%     27.60% # Class of executed instruction
system.cpu.op_class::SimdPredAlu                    0      0.00%     27.60% # Class of executed instruction
system.cpu.op_class::MemRead                     4218      0.35%     27.95% # Class of executed instruction
system.cpu.op_class::MemWrite                   47139      3.96%     31.91% # Class of executed instruction
system.cpu.op_class::FloatMemRead                 102      0.01%     31.92% # Class of executed instruction
system.cpu.op_class::FloatMemWrite             810920     68.08%    100.00% # Class of executed instruction
system.cpu.op_class::IprAccess                      0      0.00%    100.00% # Class of executed instruction
system.cpu.op_class::InstPrefetch                   0      0.00%    100.00% # Class of executed instruction
system.cpu.op_class::total                    1191067                       # Class of executed instruction
system.cpu.workload.numSyscalls                    19                       # Number of system calls
system.dynamic_cache.invTick                        0                       # Ticks taken to invalidate
system.membus.snoop_filter.hit_multi_requests            0                       # Number of requests hitting in the snoop filter with multiple (>1) holders of the requested data.
system.membus.snoop_filter.hit_multi_snoops            0                       # Number of snoops hitting in the snoop filter with multiple (>1) holders of the requested data.
system.membus.snoop_filter.hit_single_requests            0                       # Number of requests hitting in the snoop filter with a single holder of the requested data.
system.membus.snoop_filter.hit_single_snoops            0                       # Number of snoops hitting in the snoop filter with a single holder of the requested data.
system.membus.snoop_filter.tot_requests             0                       # Total number of requests made to the snoop filter.
system.membus.snoop_filter.tot_snoops               0                       # Total number of snoops made to the snoop filter.
system.cache_small.blocked_cycles::no_mshrs            0                       # number of cycles access was blocked
system.cache_small.blocked_cycles::no_targets            0                       # number of cycles access was blocked
system.cache_small.blocked::no_mshrs                0                       # number of cycles access was blocked
system.cache_small.blocked::no_targets              0                       # number of cycles access was blocked
system.cache_small.avg_blocked_cycles::no_mshrs          nan                       # average number of cycles each access was blocked
system.cache_small.avg_blocked_cycles::no_targets          nan                       # average number of cycles each access was blocked
system.cache_small.replacements                     0                       # number of replacements
system.cache_small.power_state.pwrStateResidencyTicks::UNDEFINED  12294993000                       # Cumulative time (in ticks) in various power states
system.cache_small.tags.tagsinuse                   0                       # Cycle average of tags in use
system.cache_small.tags.total_refs                  0                       # Total number of references to valid blocks.
system.cache_small.tags.sampled_refs                0                       # Sample count of references to valid blocks.
system.cache_small.tags.avg_refs                  nan                       # Average number of references to valid blocks.
system.cache_small.tags.warmup_cycle                0                       # Cycle when the warmup percentage was hit.
system.cache_small.tags.tag_accesses                0                       # Number of tag accesses
system.cache_small.tags.data_accesses               0                       # Number of data accesses
system.cache_small.tags.power_state.pwrStateResidencyTicks::UNDEFINED  12294993000                       # Cumulative time (in ticks) in various power states
system.icache.demand_hits::.cpu.inst          1563094                       # number of demand (read+write) hits
system.icache.demand_hits::total              1563094                       # number of demand (read+write) hits
system.icache.overall_hits::.cpu.inst         1563094                       # number of overall hits
system.icache.overall_hits::total             1563094                       # number of overall hits
system.icache.demand_misses::.cpu.inst            574                       # number of demand (read+write) misses
system.icache.demand_misses::total                574                       # number of demand (read+write) misses
system.icache.overall_misses::.cpu.inst           574                       # number of overall misses
system.icache.overall_misses::total               574                       # number of overall misses
system.icache.demand_miss_latency::.cpu.inst     35319000                       # number of demand (read+write) miss cycles
system.icache.demand_miss_latency::total     35319000                       # number of demand (read+write) miss cycles
system.icache.overall_miss_latency::.cpu.inst     35319000                       # number of overall miss cycles
system.icache.overall_miss_latency::total     35319000                       # number of overall miss cycles
system.icache.demand_accesses::.cpu.inst      1563668                       # number of demand (read+write) accesses
system.icache.demand_accesses::total          1563668                       # number of demand (read+write) accesses
system.icache.overall_accesses::.cpu.inst      1563668                       # number of overall (read+write) accesses
system.icache.overall_accesses::total         1563668                       # number of overall (read+write) accesses
system.icache.demand_miss_rate::.cpu.inst     0.000367                       # miss rate for demand accesses
system.icache.demand_miss_rate::total        0.000367                       # miss rate for demand accesses
system.icache.overall_miss_rate::.cpu.inst     0.000367                       # miss rate for overall accesses
system.icache.overall_miss_rate::total       0.000367                       # miss rate for overall accesses
system.icache.demand_avg_miss_latency::.cpu.inst 61531.358885                       # average overall miss latency
system.icache.demand_avg_miss_latency::total 61531.358885                       # average overall miss latency
system.icache.overall_avg_miss_latency::.cpu.inst 61531.358885                       # average overall miss latency
system.icache.overall_avg_miss_latency::total 61531.358885                       # average overall miss latency
system.icache.blocked_cycles::no_mshrs              0                       # number of cycles access was blocked
system.icache.blocked_cycles::no_targets            0                       # number of cycles access was blocked
system.icache.blocked::no_mshrs                     0                       # number of cycles access was blocked
system.icache.blocked::no_targets                   0                       # number of cycles access was blocked
system.icache.avg_blocked_cycles::no_mshrs          nan                       # average number of cycles each access was blocked
system.icache.avg_blocked_cycles::no_targets          nan                       # average number of cycles each access was blocked
system.icache.demand_mshr_misses::.cpu.inst          574                       # number of demand (read+write) MSHR misses
system.icache.demand_mshr_misses::total           574                       # number of demand (read+write) MSHR misses
system.icache.overall_mshr_misses::.cpu.inst          574                       # number of overall MSHR misses
system.icache.overall_mshr_misses::total          574                       # number of overall MSHR misses
system.icache.demand_mshr_miss_latency::.cpu.inst     34171000                       # number of demand (read+write) MSHR miss cycles
system.icache.demand_mshr_miss_latency::total     34171000                       # number of demand (read+write) MSHR miss cycles
system.icache.overall_mshr_miss_latency::.cpu.inst     34171000                       # number of overall MSHR miss cycles
system.icache.overall_mshr_miss_latency::total     34171000                       # number of overall MSHR miss cycles
system.icache.demand_mshr_miss_rate::.cpu.inst     0.000367                       # mshr miss rate for demand accesses
system.icache.demand_mshr_miss_rate::total     0.000367                       # mshr miss rate for demand accesses
system.icache.overall_mshr_miss_rate::.cpu.inst     0.000367                       # mshr miss rate for overall accesses
system.icache.overall_mshr_miss_rate::total     0.000367                       # mshr miss rate for overall accesses
system.icache.demand_avg_mshr_miss_latency::.cpu.inst 59531.358885                       # average overall mshr miss latency
system.icache.demand_avg_mshr_miss_latency::total 59531.358885                       # average overall mshr miss latency
system.icache.overall_avg_mshr_miss_latency::.cpu.inst 59531.358885                       # average overall mshr miss latency
system.icache.overall_avg_mshr_miss_latency::total 59531.358885                       # average overall mshr miss latency
system.icache.replacements                        251                       # number of replacements
system.icache.ReadReq_hits::.cpu.inst         1563094                       # number of ReadReq hits
system.icache.ReadReq_hits::total             1563094                       # number of ReadReq hits
system.icache.ReadReq_misses::.cpu.inst           574                       # number of ReadReq misses
system.icache.ReadReq_misses::total               574                       # number of ReadReq misses
system.icache.ReadReq_miss_latency::.cpu.inst     35319000                       # number of ReadReq miss cycles
system.icache.ReadReq_miss_latency::total     35319000                       # number of ReadReq miss cycles
system.icache.ReadReq_accesses::.cpu.inst      1563668                       # number of ReadReq accesses(hits+misses)
system.icache.ReadReq_accesses::total         1563668                       # number of ReadReq accesses(hits+misses)
system.icache.ReadReq_miss_rate::.cpu.inst     0.000367                       # miss rate for ReadReq accesses
system.icache.ReadReq_miss_rate::total       0.000367                       # miss rate for ReadReq accesses
system.icache.ReadReq_avg_miss_latency::.cpu.inst 61531.358885                       # average ReadReq miss latency
system.icache.ReadReq_avg_miss_latency::total 61531.358885                       # average ReadReq miss latency
system.icache.ReadReq_mshr_misses::.cpu.inst          574                       # number of ReadReq MSHR misses
system.icache.ReadReq_mshr_misses::total          574                       # number of ReadReq MSHR misses
system.icache.ReadReq_mshr_miss_latency::.cpu.inst     34171000                       # number of ReadReq MSHR miss cycles
system.icache.ReadReq_mshr_miss_latency::total     34171000                       # number of ReadReq MSHR miss cycles
system.icache.ReadReq_mshr_miss_rate::.cpu.inst     0.000367                       # mshr miss rate for ReadReq accesses
system.icache.ReadReq_mshr_miss_rate::total     0.000367                       # mshr miss rate for ReadReq accesses
system.icache.ReadReq_avg_mshr_miss_latency::.cpu.inst 59531.358885                       # average ReadReq mshr miss latency
system.icache.ReadReq_avg_mshr_miss_latency::total 59531.358885                       # average ReadReq mshr miss latency
system.icache.power_state.pwrStateResidencyTicks::UNDEFINED  12294993000                       # Cumulative time (in ticks) in various power states
system.icache.tags.tagsinuse               321.975872                       # Cycle average of tags in use
system.icache.tags.total_refs                    7567                       # Total number of references to valid blocks.
system.icache.tags.sampled_refs                   251                       # Sample count of references to valid blocks.
system.icache.tags.avg_refs                 30.147410                       # Average number of references to valid blocks.
system.icache.tags.warmup_cycle                 81000                       # Cycle when the warmup percentage was hit.
system.icache.tags.occ_blocks::.cpu.inst   321.975872                       # Average occupied blocks per requestor
system.icache.tags.occ_percent::.cpu.inst     0.628859                       # Average percentage of cache occupancy
system.icache.tags.occ_percent::total        0.628859                       # Average percentage of cache occupancy
system.icache.tags.occ_task_id_blocks::1024          323                       # Occupied blocks per task id
system.icache.tags.age_task_id_blocks_1024::4          323                       # Occupied blocks per task id
system.icache.tags.occ_task_id_percent::1024     0.630859                       # Percentage of cache occupancy per task id
system.icache.tags.tag_accesses               1564242                       # Number of tag accesses
system.icache.tags.data_accesses              1564242                       # Number of data accesses
system.icache.tags.power_state.pwrStateResidencyTicks::UNDEFINED  12294993000                       # Cumulative time (in ticks) in various power states
system.membus.trans_dist::ReadResp                595                       # Transaction distribution
system.membus.trans_dist::WritebackDirty        90441                       # Transaction distribution
system.membus.trans_dist::CleanEvict              568                       # Transaction distribution
system.membus.trans_dist::ReadExReq            106798                       # Transaction distribution
system.membus.trans_dist::ReadExResp           106798                       # Transaction distribution
system.membus.trans_dist::ReadSharedReq           595                       # Transaction distribution
system.membus.pkt_count_system.dynamic_cache.mem_side::system.mem_ctrl.port       305795                       # Packet count per connected master and slave (bytes)
system.membus.pkt_count_system.dynamic_cache.mem_side::total       305795                       # Packet count per connected master and slave (bytes)
system.membus.pkt_count::total                 305795                       # Packet count per connected master and slave (bytes)
system.membus.pkt_size_system.dynamic_cache.mem_side::system.mem_ctrl.port     12661376                       # Cumulative packet size per connected master and slave (bytes)
system.membus.pkt_size_system.dynamic_cache.mem_side::total     12661376                       # Cumulative packet size per connected master and slave (bytes)
system.membus.pkt_size::total                12661376                       # Cumulative packet size per connected master and slave (bytes)
system.membus.snoops                                0                       # Total snoops (count)
system.membus.snoopTraffic                          0                       # Total snoop traffic (bytes)
system.membus.snoop_fanout::samples            107393                       # Request fanout histogram
system.membus.snoop_fanout::mean                    0                       # Request fanout histogram
system.membus.snoop_fanout::stdev                   0                       # Request fanout histogram
system.membus.snoop_fanout::underflows              0      0.00%      0.00% # Request fanout histogram
system.membus.snoop_fanout::0                  107393    100.00%    100.00% # Request fanout histogram
system.membus.snoop_fanout::1                       0      0.00%    100.00% # Request fanout histogram
system.membus.snoop_fanout::2                       0      0.00%    100.00% # Request fanout histogram
system.membus.snoop_fanout::3                       0      0.00%    100.00% # Request fanout histogram
system.membus.snoop_fanout::overflows               0      0.00%    100.00% # Request fanout histogram
system.membus.snoop_fanout::min_value               0                       # Request fanout histogram
system.membus.snoop_fanout::max_value               0                       # Request fanout histogram
system.membus.snoop_fanout::total              107393                       # Request fanout histogram
system.membus.reqLayer2.occupancy           560166000                       # Layer occupancy (ticks)
system.membus.reqLayer2.utilization               4.6                       # Layer utilization (%)
system.membus.respLayer0.occupancy          565356750                       # Layer occupancy (ticks)
system.membus.respLayer0.utilization              4.6                       # Layer utilization (%)
system.membus.power_state.pwrStateResidencyTicks::UNDEFINED  12294993000                       # Cumulative time (in ticks) in various power states
system.mem_ctrl.bytes_read::.cpu.inst           32256                       # Number of bytes read from this memory
system.mem_ctrl.bytes_read::.cpu.data         6840896                       # Number of bytes read from this memory
system.mem_ctrl.bytes_read::total             6873152                       # Number of bytes read from this memory
system.mem_ctrl.bytes_inst_read::.cpu.inst        32256                       # Number of instructions bytes read from this memory
system.mem_ctrl.bytes_inst_read::total          32256                       # Number of instructions bytes read from this memory
system.mem_ctrl.bytes_written::.writebacks      5788224                       # Number of bytes written to this memory
system.mem_ctrl.bytes_written::total          5788224                       # Number of bytes written to this memory
system.mem_ctrl.num_reads::.cpu.inst              504                       # Number of read requests responded to by this memory
system.mem_ctrl.num_reads::.cpu.data           106889                       # Number of read requests responded to by this memory
system.mem_ctrl.num_reads::total               107393                       # Number of read requests responded to by this memory
system.mem_ctrl.num_writes::.writebacks         90441                       # Number of write requests responded to by this memory
system.mem_ctrl.num_writes::total               90441                       # Number of write requests responded to by this memory
system.mem_ctrl.bw_read::.cpu.inst            2623507                       # Total read bandwidth from this memory (bytes/s)
system.mem_ctrl.bw_read::.cpu.data          556396901                       # Total read bandwidth from this memory (bytes/s)
system.mem_ctrl.bw_read::total              559020408                       # Total read bandwidth from this memory (bytes/s)
system.mem_ctrl.bw_inst_read::.cpu.inst       2623507                       # Instruction read bandwidth from this memory (bytes/s)
system.mem_ctrl.bw_inst_read::total           2623507                       # Instruction read bandwidth from this memory (bytes/s)
system.mem_ctrl.bw_write::.writebacks       470778959                       # Write bandwidth from this memory (bytes/s)
system.mem_ctrl.bw_write::total             470778959                       # Write bandwidth from this memory (bytes/s)
system.mem_ctrl.bw_total::.writebacks       470778959                       # Total bandwidth to/from this memory (bytes/s)
system.mem_ctrl.bw_total::.cpu.inst           2623507                       # Total bandwidth to/from this memory (bytes/s)
system.mem_ctrl.bw_total::.cpu.data         556396901                       # Total bandwidth to/from this memory (bytes/s)
system.mem_ctrl.bw_total::total            1029799366                       # Total bandwidth to/from this memory (bytes/s)
system.mem_ctrl.avgPriority_.writebacks::samples     90441.00                       # Average QoS priority value for accepted requests
system.mem_ctrl.avgPriority_.cpu.inst::samples       504.00                       # Average QoS priority value for accepted requests
system.mem_ctrl.avgPriority_.cpu.data::samples    106889.00                       # Average QoS priority value for accepted requests
system.mem_ctrl.priorityMinLatency       0.000000018750                       # per QoS priority minimum request to response latency (s)
system.mem_ctrl.priorityMaxLatency       0.000052876500                       # per QoS priority maximum request to response latency (s)
system.mem_ctrl.numReadWriteTurnArounds          5396                       # Number of turnarounds from READ to WRITE
system.mem_ctrl.numWriteReadTurnArounds          5396                       # Number of turnarounds from WRITE to READ
system.mem_ctrl.numStayReadState               303143                       # Number of times bus staying in READ state
system.mem_ctrl.numStayWriteState               85158                       # Number of times bus staying in WRITE state
system.mem_ctrl.readReqs                       107393                       # Number of read requests accepted
system.mem_ctrl.writeReqs                       90441                       # Number of write requests accepted
system.mem_ctrl.readBursts                     107393                       # Number of DRAM read bursts, including those serviced by the write queue
system.mem_ctrl.writeBursts                     90441                       # Number of DRAM write bursts, including those merged in the write queue
system.mem_ctrl.servicedByWrQ                       0                       # Number of DRAM read bursts serviced by the write queue
system.mem_ctrl.mergedWrBursts                      0                       # Number of DRAM write bursts merged with an existing one
system.mem_ctrl.neitherReadNorWriteReqs             0                       # Number of requests that are neither read nor write
system.mem_ctrl.perBankRdBursts::0               6731                       # Per bank write bursts
system.mem_ctrl.perBankRdBursts::1               6684                       # Per bank write bursts
system.mem_ctrl.perBankRdBursts::2               6691                       # Per bank write bursts
system.mem_ctrl.perBankRdBursts::3               6702                       # Per bank write bursts
system.mem_ctrl.perBankRdBursts::4               6694                       # Per bank write bursts
system.mem_ctrl.perBankRdBursts::5               6694                       # Per bank write bursts
system.mem_ctrl.perBankRdBursts::6               6683                       # Per bank write bursts
system.mem_ctrl.perBankRdBursts::7               6660                       # Per bank write bursts
system.mem_ctrl.perBankRdBursts::8               6670                       # Per bank write bursts
system.mem_ctrl.perBankRdBursts::9               6736                       # Per bank write bursts
system.mem_ctrl.perBankRdBursts::10              6704                       # Per bank write bursts
system.mem_ctrl.perBankRdBursts::11              6699                       # Per bank write bursts
system.mem_ctrl.perBankRdBursts::12              6695                       # Per bank write bursts
system.mem_ctrl.perBankRdBursts::13              6742                       # Per bank write bursts
system.mem_ctrl.perBankRdBursts::14              6764                       # Per bank write bursts
system.mem_ctrl.perBankRdBursts::15              6844                       # Per bank write bursts
system.mem_ctrl.perBankWrBursts::0               5632                       # Per bank write bursts
system.mem_ctrl.perBankWrBursts::1               5632                       # Per bank write bursts
system.mem_ctrl.perBankWrBursts::2               5632                       # Per bank write bursts
system.mem_ctrl.perBankWrBursts::3               5632                       # Per bank write bursts
system.mem_ctrl.perBankWrBursts::4               5632                       # Per bank write bursts
system.mem_ctrl.perBankWrBursts::5               5632                       # Per bank write bursts
system.mem_ctrl.perBankWrBursts::6               5632                       # Per bank write bursts
system.mem_ctrl.perBankWrBursts::7               5632                       # Per bank write bursts
system.mem_ctrl.perBankWrBursts::8               5634                       # Per bank write bursts
system.mem_ctrl.perBankWrBursts::9               5688                       # Per bank write bursts
system.mem_ctrl.perBankWrBursts::10              5648                       # Per bank write bursts
system.mem_ctrl.perBankWrBursts::11              5662                       # Per bank write bursts
system.mem_ctrl.perBankWrBursts::12              5644                       # Per bank write bursts
system.mem_ctrl.perBankWrBursts::13              5661                       # Per bank write bursts
system.mem_ctrl.perBankWrBursts::14              5697                       # Per bank write bursts
system.mem_ctrl.perBankWrBursts::15              5722                       # Per bank write bursts
system.mem_ctrl.avgRdQLen                        1.00                       # Average read queue length when enqueuing
system.mem_ctrl.avgWrQLen                       21.82                       # Average write queue length when enqueuing
system.mem_ctrl.totQLat                     999032500                       # Total ticks spent queuing
system.mem_ctrl.totBusLat                   536965000                       # Total ticks spent in databus transfers
system.mem_ctrl.totMemAccLat               3012651250                       # Total ticks spent from burst creation until serviced by the DRAM
system.mem_ctrl.avgQLat                       9302.58                       # Average queueing delay per DRAM burst
system.mem_ctrl.avgBusLat                     5000.00                       # Average bus latency per DRAM burst
system.mem_ctrl.avgMemAccLat                 28052.58                       # Average memory access latency per DRAM burst
system.mem_ctrl.numRdRetry                          0                       # Number of times read queue was full causing retry
system.mem_ctrl.numWrRetry                          0                       # Number of times write queue was full causing retry
system.mem_ctrl.readRowHits                     97095                       # Number of row buffer hits during reads
system.mem_ctrl.writeRowHits                    82545                       # Number of row buffer hits during writes
system.mem_ctrl.readRowHitRate                  90.41                       # Row buffer hit rate for reads
system.mem_ctrl.writeRowHitRate                 91.27                       # Row buffer hit rate for writes
system.mem_ctrl.readPktSize::0                      0                       # Read request sizes (log2)
system.mem_ctrl.readPktSize::1                      0                       # Read request sizes (log2)
system.mem_ctrl.readPktSize::2                      0                       # Read request sizes (log2)
system.mem_ctrl.readPktSize::3                      0                       # Read request sizes (log2)
system.mem_ctrl.readPktSize::4                      0                       # Read request sizes (log2)
system.mem_ctrl.readPktSize::5                      0                       # Read request sizes (log2)
system.mem_ctrl.readPktSize::6                 107393                       # Read request sizes (log2)
system.mem_ctrl.writePktSize::0                     0                       # Write request sizes (log2)
system.mem_ctrl.writePktSize::1                     0                       # Write request sizes (log2)
system.mem_ctrl.writePktSize::2                     0                       # Write request sizes (log2)
system.mem_ctrl.writePktSize::3                     0                       # Write request sizes (log2)
system.mem_ctrl.writePktSize::4                     0                       # Write request sizes (log2)
system.mem_ctrl.writePktSize::5                     0                       # Write request sizes (log2)
system.mem_ctrl.writePktSize::6                 90441                       # Write request sizes (log2)
system.mem_ctrl.rdQLenPdf::0                   107393                       # What read queue length does an incoming req see
system.mem_ctrl.rdQLenPdf::1                        0                       # What read queue length does an incoming req see
system.mem_ctrl.rdQLenPdf::2                        0                       # What read queue length does an incoming req see
system.mem_ctrl.rdQLenPdf::3                        0                       # What read queue length does an incoming req see
system.mem_ctrl.rdQLenPdf::4                        0                       # What read queue length does an incoming req see
system.mem_ctrl.rdQLenPdf::5                        0                       # What read queue length does an incoming req see
system.mem_ctrl.rdQLenPdf::6                        0                       # What read queue length does an incoming req see
system.mem_ctrl.rdQLenPdf::7                        0                       # What read queue length does an incoming req see
system.mem_ctrl.rdQLenPdf::8                        0                       # What read queue length does an incoming req see
system.mem_ctrl.rdQLenPdf::9                        0                       # What read queue length does an incoming req see
system.mem_ctrl.rdQLenPdf::10                       0                       # What read queue length does an incoming req see
system.mem_ctrl.rdQLenPdf::11                       0                       # What read queue length does an incoming req see
system.mem_ctrl.rdQLenPdf::12                       0                       # What read queue length does an incoming req see
system.mem_ctrl.rdQLenPdf::13                       0                       # What read queue length does an incoming req see
system.mem_ctrl.rdQLenPdf::14                       0                       # What read queue length does an incoming req see
system.mem_ctrl.rdQLenPdf::15                       0                       # What read queue length does an incoming req see
system.mem_ctrl.rdQLenPdf::16                       0                       # What read queue length does an incoming req see
system.mem_ctrl.rdQLenPdf::17                       0                       # What read queue length does an incoming req see
system.mem_ctrl.rdQLenPdf::18                       0                       # What read queue length does an incoming req see
system.mem_ctrl.rdQLenPdf::19                       0                       # What read queue length does an incoming req see
system.mem_ctrl.rdQLenPdf::20                       0                       # What read queue length does an incoming req see
system.mem_ctrl.rdQLenPdf::21                       0                       # What read queue length does an incoming req see
system.mem_ctrl.rdQLenPdf::22                       0                       # What read queue length does an incoming req see
system.mem_ctrl.rdQLenPdf::23                       0                       # What read queue length does an incoming req see
system.mem_ctrl.rdQLenPdf::24                       0                       # What read queue length does an incoming req see
system.mem_ctrl.rdQLenPdf::25                       0                       # What read queue length does an incoming req see
system.mem_ctrl.rdQLenPdf::26                       0                       # What read queue length does an incoming req see
system.mem_ctrl.rdQLenPdf::27                       0                       # What read queue length does an incoming req see
system.mem_ctrl.rdQLenPdf::28                       0                       # What read queue length does an incoming req see
system.mem_ctrl.rdQLenPdf::29                       0                       # What read queue length does an incoming req see
system.mem_ctrl.rdQLenPdf::30                       0                       # What read queue length does an incoming req see
system.mem_ctrl.rdQLenPdf::31                       0                       # What read queue length does an incoming req see
system.mem_ctrl.wrQLenPdf::0                        1                       # What write queue length does an incoming req see
system.mem_ctrl.wrQLenPdf::1                        1                       # What write queue length does an incoming req see
system.mem_ctrl.wrQLenPdf::2                        1                       # What write queue length does an incoming req see
system.mem_ctrl.wrQLenPdf::3                        1                       # What write queue length does an incoming req see
system.mem_ctrl.wrQLenPdf::4                        1                       # What write queue length does an incoming req see
system.mem_ctrl.wrQLenPdf::5                        1                       # What write queue length does an incoming req see
system.mem_ctrl.wrQLenPdf::6                        1                       # What write queue length does an incoming req see
system.mem_ctrl.wrQLenPdf::7                        1                       # What write queue length does an incoming req see
system.mem_ctrl.wrQLenPdf::8                        1                       # What write queue length does an incoming req see
system.mem_ctrl.wrQLenPdf::9                        1                       # What write queue length does an incoming req see
system.mem_ctrl.wrQLenPdf::10                       1                       # What write queue length does an incoming req see
system.mem_ctrl.wrQLenPdf::11                       1                       # What write queue length does an incoming req see
system.mem_ctrl.wrQLenPdf::12                       1                       # What write queue length does an incoming req see
system.mem_ctrl.wrQLenPdf::13                       1                       # What write queue length does an incoming req see
system.mem_ctrl.wrQLenPdf::14                       1                       # What write queue length does an incoming req see
system.mem_ctrl.wrQLenPdf::15                    1862                       # What write queue length does an incoming req see
system.mem_ctrl.wrQLenPdf::16                    2200                       # What write queue length does an incoming req see
system.mem_ctrl.wrQLenPdf::17                    5386                       # What write queue length does an incoming req see
system.mem_ctrl.wrQLenPdf::18                    5398                       # What write queue length does an incoming req see
system.mem_ctrl.wrQLenPdf::19                    5397                       # What write queue length does an incoming req see
system.mem_ctrl.wrQLenPdf::20                    5397                       # What write queue length does an incoming req see
system.mem_ctrl.wrQLenPdf::21                    5397                       # What write queue length does an incoming req see
system.mem_ctrl.wrQLenPdf::22                    5397                       # What write queue length does an incoming req see
system.mem_ctrl.wrQLenPdf::23                    5397                       # What write queue length does an incoming req see
system.mem_ctrl.wrQLenPdf::24                    5397                       # What write queue length does an incoming req see
system.mem_ctrl.wrQLenPdf::25                    5397                       # What write queue length does an incoming req see
system.mem_ctrl.wrQLenPdf::26                    5401                       # What write queue length does an incoming req see
system.mem_ctrl.wrQLenPdf::27                    5419                       # What write queue length does an incoming req see
system.mem_ctrl.wrQLenPdf::28                    5397                       # What write queue length does an incoming req see
system.mem_ctrl.wrQLenPdf::29                    5396                       # What write queue length does an incoming req see
system.mem_ctrl.wrQLenPdf::30                    5396                       # What write queue length does an incoming req see
system.mem_ctrl.wrQLenPdf::31                    5396                       # What write queue length does an incoming req see
system.mem_ctrl.wrQLenPdf::32                    5396                       # What write queue length does an incoming req see
system.mem_ctrl.wrQLenPdf::33                       0                       # What write queue length does an incoming req see
system.mem_ctrl.wrQLenPdf::34                       0                       # What write queue length does an incoming req see
system.mem_ctrl.wrQLenPdf::35                       0                       # What write queue length does an incoming req see
system.mem_ctrl.wrQLenPdf::36                       0                       # What write queue length does an incoming req see
system.mem_ctrl.wrQLenPdf::37                       0                       # What write queue length does an incoming req see
system.mem_ctrl.wrQLenPdf::38                       0                       # What write queue length does an incoming req see
system.mem_ctrl.wrQLenPdf::39                       0                       # What write queue length does an incoming req see
system.mem_ctrl.wrQLenPdf::40                       0                       # What write queue length does an incoming req see
system.mem_ctrl.wrQLenPdf::41                       0                       # What write queue length does an incoming req see
system.mem_ctrl.wrQLenPdf::42                       0                       # What write queue length does an incoming req see
system.mem_ctrl.wrQLenPdf::43                       0                       # What write queue length does an incoming req see
system.mem_ctrl.wrQLenPdf::44                       0                       # What write queue length does an incoming req see
system.mem_ctrl.wrQLenPdf::45                       0                       # What write queue length does an incoming req see
system.mem_ctrl.wrQLenPdf::46                       0                       # What write queue length does an incoming req see
system.mem_ctrl.wrQLenPdf::47                       0                       # What write queue length does an incoming req see
system.mem_ctrl.wrQLenPdf::48                       0                       # What write queue length does an incoming req see
system.mem_ctrl.wrQLenPdf::49                       0                       # What write queue length does an incoming req see
system.mem_ctrl.wrQLenPdf::50                       0                       # What write queue length does an incoming req see
system.mem_ctrl.wrQLenPdf::51                       0                       # What write queue length does an incoming req see
system.mem_ctrl.wrQLenPdf::52                       0                       # What write queue length does an incoming req see
system.mem_ctrl.wrQLenPdf::53                       0                       # What write queue length does an incoming req see
system.mem_ctrl.wrQLenPdf::54                       0                       # What write queue length does an incoming req see
system.mem_ctrl.wrQLenPdf::55                       0                       # What write queue length does an incoming req see
system.mem_ctrl.wrQLenPdf::56                       0                       # What write queue length does an incoming req see
system.mem_ctrl.wrQLenPdf::57                       0                       # What write queue length does an incoming req see
system.mem_ctrl.wrQLenPdf::58                       0                       # What write queue length does an incoming req see
system.mem_ctrl.wrQLenPdf::59                       0                       # What write queue length does an incoming req see
system.mem_ctrl.wrQLenPdf::60                       0                       # What write queue length does an incoming req see
system.mem_ctrl.wrQLenPdf::61                       0                       # What write queue length does an incoming req see
system.mem_ctrl.wrQLenPdf::62                       0                       # What write queue length does an incoming req see
system.mem_ctrl.wrQLenPdf::63                       0                       # What write queue length does an incoming req see
system.mem_ctrl.bytesPerActivate::samples        18164                       # Bytes accessed per row activation
system.mem_ctrl.bytesPerActivate::mean     696.949571                       # Bytes accessed per row activation
system.mem_ctrl.bytesPerActivate::gmean    507.102047                       # Bytes accessed per row activation
system.mem_ctrl.bytesPerActivate::stdev    392.587582                       # Bytes accessed per row activation
system.mem_ctrl.bytesPerActivate::0-127          1147      6.31%      6.31% # Bytes accessed per row activation
system.mem_ctrl.bytesPerActivate::128-255         3458     19.04%     25.35% # Bytes accessed per row activation
system.mem_ctrl.bytesPerActivate::256-383          749      4.12%     29.48% # Bytes accessed per row activation
system.mem_ctrl.bytesPerActivate::384-511          699      3.85%     33.32% # Bytes accessed per row activation
system.mem_ctrl.bytesPerActivate::512-639          650      3.58%     36.90% # Bytes accessed per row activation
system.mem_ctrl.bytesPerActivate::640-767          743      4.09%     40.99% # Bytes accessed per row activation
system.mem_ctrl.bytesPerActivate::768-895          686      3.78%     44.77% # Bytes accessed per row activation
system.mem_ctrl.bytesPerActivate::896-1023          712      3.92%     48.69% # Bytes accessed per row activation
system.mem_ctrl.bytesPerActivate::1024-1151         9320     51.31%    100.00% # Bytes accessed per row activation
system.mem_ctrl.bytesPerActivate::total         18164                       # Bytes accessed per row activation
system.mem_ctrl.rdPerTurnAround::samples         5396                       # Reads before turning the bus around for writes
system.mem_ctrl.rdPerTurnAround::mean       19.900111                       # Reads before turning the bus around for writes
system.mem_ctrl.rdPerTurnAround::gmean      16.782969                       # Reads before turning the bus around for writes
system.mem_ctrl.rdPerTurnAround::stdev     223.711578                       # Reads before turning the bus around for writes
system.mem_ctrl.rdPerTurnAround::0-1023          5395     99.98%     99.98% # Reads before turning the bus around for writes
system.mem_ctrl.rdPerTurnAround::16384-17407            1      0.02%    100.00% # Reads before turning the bus around for writes
system.mem_ctrl.rdPerTurnAround::total           5396                       # Reads before turning the bus around for writes
system.mem_ctrl.wrPerTurnAround::samples         5396                       # Writes before turning the bus around for reads
system.mem_ctrl.wrPerTurnAround::mean       16.755374                       # Writes before turning the bus around for reads
system.mem_ctrl.wrPerTurnAround::gmean      16.729595                       # Writes before turning the bus around for reads
system.mem_ctrl.wrPerTurnAround::stdev       0.937836                       # Writes before turning the bus around for reads
system.mem_ctrl.wrPerTurnAround::16              3193     59.17%     59.17% # Writes before turning the bus around for reads
system.mem_ctrl.wrPerTurnAround::17               331      6.13%     65.31% # Writes before turning the bus around for reads
system.mem_ctrl.wrPerTurnAround::18              1871     34.67%     99.98% # Writes before turning the bus around for reads
system.mem_ctrl.wrPerTurnAround::19                 1      0.02%    100.00% # Writes before turning the bus around for reads
system.mem_ctrl.wrPerTurnAround::total           5396                       # Writes before turning the bus around for reads
system.mem_ctrl.bytesReadDRAM                 6873152                       # Total number of bytes read from DRAM
system.mem_ctrl.bytesReadWrQ                        0                       # Total number of bytes read from write queue
system.mem_ctrl.bytesWritten                  5786368                       # Total number of bytes written to DRAM
system.mem_ctrl.bytesReadSys                  6873152                       # Total read bytes from the system interface side
system.mem_ctrl.bytesWrittenSys               5788224                       # Total written bytes from the system interface side
system.mem_ctrl.avgRdBW                        559.02                       # Average DRAM read bandwidth in MiByte/s
system.mem_ctrl.avgWrBW                        470.63                       # Average achieved write bandwidth in MiByte/s
system.mem_ctrl.avgRdBWSys                     559.02                       # Average system read bandwidth in MiByte/s
system.mem_ctrl.avgWrBWSys                     470.78                       # Average system write bandwidth in MiByte/s
system.mem_ctrl.peakBW                       12800.00                       # Theoretical peak bandwidth in MiByte/s
system.mem_ctrl.busUtil                          8.04                       # Data bus utilization in percentage
system.mem_ctrl.busUtilRead                      4.37                       # Data bus utilization in percentage for reads
system.mem_ctrl.busUtilWrite                     3.68                       # Data bus utilization in percentage for writes
system.mem_ctrl.totGap                    12294961000                       # Total gap between requests
system.mem_ctrl.avgGap                       62147.87                       # Average gap between requests
system.mem_ctrl.masterReadBytes::.cpu.inst        32256                       # Per-master bytes read from memory
system.mem_ctrl.masterReadBytes::.cpu.data      6840896                       # Per-master bytes read from memory
system.mem_ctrl.masterWriteBytes::.writebacks      5786368                       # Per-master bytes write to memory
system.mem_ctrl.masterReadRate::.cpu.inst 2623506.983696533833                       # Per-master bytes read from memory rate (Bytes/sec)
system.mem_ctrl.masterReadRate::.cpu.data 556396900.754640460014                       # Per-master bytes read from memory rate (Bytes/sec)
system.mem_ctrl.masterWriteRate::.writebacks 470628002.797561526299                       # Per-master bytes write to memory rate (Bytes/sec)
system.mem_ctrl.masterReadAccesses::.cpu.inst          504                       # Per-master read serviced memory accesses
system.mem_ctrl.masterReadAccesses::.cpu.data       106889                       # Per-master read serviced memory accesses
system.mem_ctrl.masterWriteAccesses::.writebacks        90441                       # Per-master write serviced memory accesses
system.mem_ctrl.masterReadTotalLat::.cpu.inst     12712000                       # Per-master read total memory access latency
system.mem_ctrl.masterReadTotalLat::.cpu.data   2999939250                       # Per-master read total memory access latency
system.mem_ctrl.masterWriteTotalLat::.writebacks 254964683500                       # Per-master write total memory access latency
system.mem_ctrl.masterReadAvgLat::.cpu.inst     25222.22                       # Per-master read average memory access latency
system.mem_ctrl.masterReadAvgLat::.cpu.data     28065.93                       # Per-master read average memory access latency
system.mem_ctrl.masterWriteAvgLat::.writebacks   2819127.20                       # Per-master write average memory access latency
system.mem_ctrl.pageHitRate                     90.80                       # Row buffer hit rate, read and write combined
system.mem_ctrl.rank1.actEnergy              65131080                       # Energy for activate commands per rank (pJ)
system.mem_ctrl.rank1.preEnergy              34614195                       # Energy for precharge commands per rank (pJ)
system.mem_ctrl.rank1.readEnergy            384517560                       # Energy for read commands per rank (pJ)
system.mem_ctrl.rank1.writeEnergy           236758320                       # Energy for write commands per rank (pJ)
system.mem_ctrl.rank1.refreshEnergy      970516560.000000                       # Energy for refresh commands per rank (pJ)
system.mem_ctrl.rank1.actBackEnergy        2941523760                       # Energy for active background per rank (pJ)
system.mem_ctrl.rank1.preBackEnergy        2244204960                       # Energy for precharge background per rank (pJ)
system.mem_ctrl.rank1.actPowerDownEnergy            0                       # Energy for active power-down per rank (pJ)
system.mem_ctrl.rank1.prePowerDownEnergy            0                       # Energy for precharge power-down per rank (pJ)
system.mem_ctrl.rank1.selfRefreshEnergy             0                       # Energy for self refresh per rank (pJ)
system.mem_ctrl.rank1.totalEnergy          6877266435                       # Total energy per rank (pJ)
system.mem_ctrl.rank1.averagePower         559.355051                       # Core power per rank (mW)
system.mem_ctrl.rank1.totalIdleTime                 0                       # Total Idle time Per DRAM Rank
system.mem_ctrl.rank1.memoryStateTime::IDLE   5744397000                       # Time in different power states
system.mem_ctrl.rank1.memoryStateTime::REF    410540000                       # Time in different power states
system.mem_ctrl.rank1.memoryStateTime::SREF            0                       # Time in different power states
system.mem_ctrl.rank1.memoryStateTime::PRE_PDN            0                       # Time in different power states
system.mem_ctrl.rank1.memoryStateTime::ACT   6140056000                       # Time in different power states
system.mem_ctrl.rank1.memoryStateTime::ACT_PDN            0                       # Time in different power states
system.mem_ctrl.rank0.actEnergy              64567020                       # Energy for activate commands per rank (pJ)
system.mem_ctrl.rank0.preEnergy              34318185                       # Energy for precharge commands per rank (pJ)
system.mem_ctrl.rank0.readEnergy            382268460                       # Energy for read commands per rank (pJ)
system.mem_ctrl.rank0.writeEnergy           235192320                       # Energy for write commands per rank (pJ)
system.mem_ctrl.rank0.refreshEnergy      970516560.000000                       # Energy for refresh commands per rank (pJ)
system.mem_ctrl.rank0.actBackEnergy        2922535350                       # Energy for active background per rank (pJ)
system.mem_ctrl.rank0.preBackEnergy        2260195200                       # Energy for precharge background per rank (pJ)
system.mem_ctrl.rank0.actPowerDownEnergy            0                       # Energy for active power-down per rank (pJ)
system.mem_ctrl.rank0.prePowerDownEnergy            0                       # Energy for precharge power-down per rank (pJ)
system.mem_ctrl.rank0.selfRefreshEnergy             0                       # Energy for self refresh per rank (pJ)
system.mem_ctrl.rank0.totalEnergy          6869593095                       # Total energy per rank (pJ)
system.mem_ctrl.rank0.averagePower         558.730948                       # Core power per rank (mW)
system.mem_ctrl.rank0.totalIdleTime                 0                       # Total Idle time Per DRAM Rank
system.mem_ctrl.rank0.memoryStateTime::IDLE   5784667750                       # Time in different power states
system.mem_ctrl.rank0.memoryStateTime::REF    410540000                       # Time in different power states
system.mem_ctrl.rank0.memoryStateTime::SREF            0                       # Time in different power states
system.mem_ctrl.rank0.memoryStateTime::PRE_PDN            0                       # Time in different power states
system.mem_ctrl.rank0.memoryStateTime::ACT   6099785250                       # Time in different power states
system.mem_ctrl.rank0.memoryStateTime::ACT_PDN            0                       # Time in different power states
system.mem_ctrl.power_state.pwrStateResidencyTicks::UNDEFINED  12294993000                       # Cumulative time (in ticks) in various power states
system.cache_medium.blocked_cycles::no_mshrs            0                       # number of cycles access was blocked
system.cache_medium.blocked_cycles::no_targets            0                       # number of cycles access was blocked
system.cache_medium.blocked::no_mshrs               0                       # number of cycles access was blocked
system.cache_medium.blocked::no_targets             0                       # number of cycles access was blocked
system.cache_medium.avg_blocked_cycles::no_mshrs          nan                       # average number of cycles each access was blocked
system.cache_medium.avg_blocked_cycles::no_targets          nan                       # average number of cycles each access was blocked
system.cache_medium.replacements                    0                       # number of replacements
system.cache_medium.power_state.pwrStateResidencyTicks::UNDEFINED  12294993000                       # Cumulative time (in ticks) in various power states
system.cache_medium.tags.tagsinuse                  0                       # Cycle average of tags in use
system.cache_medium.tags.total_refs                 0                       # Total number of references to valid blocks.
system.cache_medium.tags.sampled_refs               0                       # Sample count of references to valid blocks.
system.cache_medium.tags.avg_refs                 nan                       # Average number of references to valid blocks.
system.cache_medium.tags.warmup_cycle               0                       # Cycle when the warmup percentage was hit.
system.cache_medium.tags.tag_accesses               0                       # Number of tag accesses
system.cache_medium.tags.data_accesses              0                       # Number of data accesses
system.cache_medium.tags.power_state.pwrStateResidencyTicks::UNDEFINED  12294993000                       # Cumulative time (in ticks) in various power states
system.clk_domain.clock                          1000                       # Clock period in ticks
system.clk_domain.voltage_domain.voltage            1                       # Voltage in Volts
system.dcache.demand_hits::.cpu.data           753823                       # number of demand (read+write) hits
system.dcache.demand_hits::total               753823                       # number of demand (read+write) hits
system.dcache.overall_hits::.cpu.data          753823                       # number of overall hits
system.dcache.overall_hits::total              753823                       # number of overall hits
system.dcache.demand_misses::.cpu.data         106901                       # number of demand (read+write) misses
system.dcache.demand_misses::total             106901                       # number of demand (read+write) misses
system.dcache.overall_misses::.cpu.data        106901                       # number of overall misses
system.dcache.overall_misses::total            106901                       # number of overall misses
system.dcache.demand_miss_latency::.cpu.data   7624519000                       # number of demand (read+write) miss cycles
system.dcache.demand_miss_latency::total   7624519000                       # number of demand (read+write) miss cycles
system.dcache.overall_miss_latency::.cpu.data   7624519000                       # number of overall miss cycles
system.dcache.overall_miss_latency::total   7624519000                       # number of overall miss cycles
system.dcache.demand_accesses::.cpu.data       860724                       # number of demand (read+write) accesses
system.dcache.demand_accesses::total           860724                       # number of demand (read+write) accesses
system.dcache.overall_accesses::.cpu.data       860724                       # number of overall (read+write) accesses
system.dcache.overall_accesses::total          860724                       # number of overall (read+write) accesses
system.dcache.demand_miss_rate::.cpu.data     0.124199                       # miss rate for demand accesses
system.dcache.demand_miss_rate::total        0.124199                       # miss rate for demand accesses
system.dcache.overall_miss_rate::.cpu.data     0.124199                       # miss rate for overall accesses
system.dcache.overall_miss_rate::total       0.124199                       # miss rate for overall accesses
system.dcache.demand_avg_miss_latency::.cpu.data 71323.177519                       # average overall miss latency
system.dcache.demand_avg_miss_latency::total 71323.177519                       # average overall miss latency
system.dcache.overall_avg_miss_latency::.cpu.data 71323.177519                       # average overall miss latency
system.dcache.overall_avg_miss_latency::total 71323.177519                       # average overall miss latency
system.dcache.blocked_cycles::no_mshrs              0                       # number of cycles access was blocked
system.dcache.blocked_cycles::no_targets            0                       # number of cycles access was blocked
system.dcache.blocked::no_mshrs                     0                       # number of cycles access was blocked
system.dcache.blocked::no_targets                   0                       # number of cycles access was blocked
system.dcache.avg_blocked_cycles::no_mshrs          nan                       # average number of cycles each access was blocked
system.dcache.avg_blocked_cycles::no_targets          nan                       # average number of cycles each access was blocked
system.dcache.writebacks::.writebacks          106324                       # number of writebacks
system.dcache.writebacks::total                106324                       # number of writebacks
system.dcache.demand_mshr_misses::.cpu.data       106901                       # number of demand (read+write) MSHR misses
system.dcache.demand_mshr_misses::total        106901                       # number of demand (read+write) MSHR misses
system.dcache.overall_mshr_misses::.cpu.data       106901                       # number of overall MSHR misses
system.dcache.overall_mshr_misses::total       106901                       # number of overall MSHR misses
system.dcache.demand_mshr_miss_latency::.cpu.data   7410719000                       # number of demand (read+write) MSHR miss cycles
system.dcache.demand_mshr_miss_latency::total   7410719000                       # number of demand (read+write) MSHR miss cycles
system.dcache.overall_mshr_miss_latency::.cpu.data   7410719000                       # number of overall MSHR miss cycles
system.dcache.overall_mshr_miss_latency::total   7410719000                       # number of overall MSHR miss cycles
system.dcache.demand_mshr_miss_rate::.cpu.data     0.124199                       # mshr miss rate for demand accesses
system.dcache.demand_mshr_miss_rate::total     0.124199                       # mshr miss rate for demand accesses
system.dcache.overall_mshr_miss_rate::.cpu.data     0.124199                       # mshr miss rate for overall accesses
system.dcache.overall_mshr_miss_rate::total     0.124199                       # mshr miss rate for overall accesses
system.dcache.demand_avg_mshr_miss_latency::.cpu.data 69323.196228                       # average overall mshr miss latency
system.dcache.demand_avg_mshr_miss_latency::total 69323.196228                       # average overall mshr miss latency
system.dcache.overall_avg_mshr_miss_latency::.cpu.data 69323.196228                       # average overall mshr miss latency
system.dcache.overall_avg_mshr_miss_latency::total 69323.196228                       # average overall mshr miss latency
system.dcache.replacements                     106388                       # number of replacements
system.dcache.ReadReq_hits::.cpu.data            4235                       # number of ReadReq hits
system.dcache.ReadReq_hits::total                4235                       # number of ReadReq hits
system.dcache.ReadReq_misses::.cpu.data           100                       # number of ReadReq misses
system.dcache.ReadReq_misses::total               100                       # number of ReadReq misses
system.dcache.ReadReq_miss_latency::.cpu.data      6414000                       # number of ReadReq miss cycles
system.dcache.ReadReq_miss_latency::total      6414000                       # number of ReadReq miss cycles
system.dcache.ReadReq_accesses::.cpu.data         4335                       # number of ReadReq accesses(hits+misses)
system.dcache.ReadReq_accesses::total            4335                       # number of ReadReq accesses(hits+misses)
system.dcache.ReadReq_miss_rate::.cpu.data     0.023068                       # miss rate for ReadReq accesses
system.dcache.ReadReq_miss_rate::total       0.023068                       # miss rate for ReadReq accesses
system.dcache.ReadReq_avg_miss_latency::.cpu.data        64140                       # average ReadReq miss latency
system.dcache.ReadReq_avg_miss_latency::total        64140                       # average ReadReq miss latency
system.dcache.ReadReq_mshr_misses::.cpu.data          100                       # number of ReadReq MSHR misses
system.dcache.ReadReq_mshr_misses::total          100                       # number of ReadReq MSHR misses
system.dcache.ReadReq_mshr_miss_latency::.cpu.data      6214000                       # number of ReadReq MSHR miss cycles
system.dcache.ReadReq_mshr_miss_latency::total      6214000                       # number of ReadReq MSHR miss cycles
system.dcache.ReadReq_mshr_miss_rate::.cpu.data     0.023068                       # mshr miss rate for ReadReq accesses
system.dcache.ReadReq_mshr_miss_rate::total     0.023068                       # mshr miss rate for ReadReq accesses
system.dcache.ReadReq_avg_mshr_miss_latency::.cpu.data        62140                       # average ReadReq mshr miss latency
system.dcache.ReadReq_avg_mshr_miss_latency::total        62140                       # average ReadReq mshr miss latency
system.dcache.WriteReq_hits::.cpu.data         749588                       # number of WriteReq hits
system.dcache.WriteReq_hits::total             749588                       # number of WriteReq hits
system.dcache.WriteReq_misses::.cpu.data       106801                       # number of WriteReq misses
system.dcache.WriteReq_misses::total           106801                       # number of WriteReq misses
system.dcache.WriteReq_miss_latency::.cpu.data   7618105000                       # number of WriteReq miss cycles
system.dcache.WriteReq_miss_latency::total   7618105000                       # number of WriteReq miss cycles
system.dcache.WriteReq_accesses::.cpu.data       856389                       # number of WriteReq accesses(hits+misses)
system.dcache.WriteReq_accesses::total         856389                       # number of WriteReq accesses(hits+misses)
system.dcache.WriteReq_miss_rate::.cpu.data     0.124711                       # miss rate for WriteReq accesses
system.dcache.WriteReq_miss_rate::total      0.124711                       # miss rate for WriteReq accesses
system.dcache.WriteReq_avg_miss_latency::.cpu.data 71329.903278                       # average WriteReq miss latency
system.dcache.WriteReq_avg_miss_latency::total 71329.903278                       # average WriteReq miss latency
system.dcache.WriteReq_mshr_misses::.cpu.data       106801                       # number of WriteReq MSHR misses
system.dcache.WriteReq_mshr_misses::total       106801                       # number of WriteReq MSHR misses
system.dcache.WriteReq_mshr_miss_latency::.cpu.data   7404505000                       # number of WriteReq MSHR miss cycles
system.dcache.WriteReq_mshr_miss_latency::total   7404505000                       # number of WriteReq MSHR miss cycles
system.dcache.WriteReq_mshr_miss_rate::.cpu.data     0.124711                       # mshr miss rate for WriteReq accesses
system.dcache.WriteReq_mshr_miss_rate::total     0.124711                       # mshr miss rate for WriteReq accesses
system.dcache.WriteReq_avg_mshr_miss_latency::.cpu.data 69329.922004                       # average WriteReq mshr miss latency
system.dcache.WriteReq_avg_mshr_miss_latency::total 69329.922004                       # average WriteReq mshr miss latency
system.dcache.power_state.pwrStateResidencyTicks::UNDEFINED  12294993000                       # Cumulative time (in ticks) in various power states
system.dcache.tags.tagsinuse               507.875061                       # Cycle average of tags in use
system.dcache.tags.total_refs                  856634                       # Total number of references to valid blocks.
system.dcache.tags.sampled_refs                106388                       # Sample count of references to valid blocks.
system.dcache.tags.avg_refs                  8.051980                       # Average number of references to valid blocks.
system.dcache.tags.warmup_cycle                165000                       # Cycle when the warmup percentage was hit.
system.dcache.tags.occ_blocks::.cpu.data   507.875061                       # Average occupied blocks per requestor
system.dcache.tags.occ_percent::.cpu.data     0.991943                       # Average percentage of cache occupancy
system.dcache.tags.occ_percent::total        0.991943                       # Average percentage of cache occupancy
system.dcache.tags.occ_task_id_blocks::1024          512                       # Occupied blocks per task id
system.dcache.tags.age_task_id_blocks_1024::0           86                       # Occupied blocks per task id
system.dcache.tags.age_task_id_blocks_1024::1          426                       # Occupied blocks per task id
system.dcache.tags.occ_task_id_percent::1024            1                       # Percentage of cache occupancy per task id
system.dcache.tags.tag_accesses                967624                       # Number of tag accesses
system.dcache.tags.data_accesses               967624                       # Number of data accesses
system.dcache.tags.power_state.pwrStateResidencyTicks::UNDEFINED  12294993000                       # Cumulative time (in ticks) in various power states
system.cache_large.blocked_cycles::no_mshrs            0                       # number of cycles access was blocked
system.cache_large.blocked_cycles::no_targets            0                       # number of cycles access was blocked
system.cache_large.blocked::no_mshrs                0                       # number of cycles access was blocked
system.cache_large.blocked::no_targets              0                       # number of cycles access was blocked
system.cache_large.avg_blocked_cycles::no_mshrs          nan                       # average number of cycles each access was blocked
system.cache_large.avg_blocked_cycles::no_targets          nan                       # average number of cycles each access was blocked
system.cache_large.replacements                     0                       # number of replacements
system.cache_large.power_state.pwrStateResidencyTicks::UNDEFINED  12294993000                       # Cumulative time (in ticks) in various power states
system.cache_large.tags.tagsinuse                   0                       # Cycle average of tags in use
system.cache_large.tags.total_refs                  0                       # Total number of references to valid blocks.
system.cache_large.tags.sampled_refs                0                       # Sample count of references to valid blocks.
system.cache_large.tags.avg_refs                  nan                       # Average number of references to valid blocks.
system.cache_large.tags.warmup_cycle                0                       # Cycle when the warmup percentage was hit.
system.cache_large.tags.tag_accesses                0                       # Number of tag accesses
system.cache_large.tags.data_accesses               0                       # Number of data accesses
system.cache_large.tags.power_state.pwrStateResidencyTicks::UNDEFINED  12294993000                       # Cumulative time (in ticks) in various power states
system.l2cache.demand_hits::.cpu.inst              70                       # number of demand (read+write) hits
system.l2cache.demand_hits::.cpu.data              11                       # number of demand (read+write) hits
system.l2cache.demand_hits::total                  81                       # number of demand (read+write) hits
system.l2cache.overall_hits::.cpu.inst             70                       # number of overall hits
system.l2cache.overall_hits::.cpu.data             11                       # number of overall hits
system.l2cache.overall_hits::total                 81                       # number of overall hits
system.l2cache.demand_misses::.cpu.inst           504                       # number of demand (read+write) misses
system.l2cache.demand_misses::.cpu.data        106890                       # number of demand (read+write) misses
[...]
system.l2cache.demand_hits::.cpu.data              11                       # number of demand (read+write) hits
system.l2cache.demand_hits::total                  81                       # number of demand (read+write) hits
system.l2cache.overall_hits::.cpu.inst             70                       # number of overall hits
system.l2cache.overall_hits::.cpu.data             11                       # number of overall hits
system.l2cache.overall_hits::total                 81                       # number of overall hits
system.l2cache.demand_misses::.cpu.inst           504                       # number of demand (read+write) misses
system.l2cache.demand_misses::.cpu.data        541672                       # number of demand (read+write) misses
system.l2cache.demand_misses::total            542176                       # number of demand (read+write) misses
system.l2cache.overall_misses::.cpu.inst          504                       # number of overall misses
system.l2cache.overall_misses::.cpu.data       541672                       # number of overall misses
system.l2cache.overall_misses::total           542176                       # number of overall misses
system.l2cache.demand_miss_latency::.cpu.inst     31522000                       # number of demand (read+write) miss cycles
system.l2cache.demand_miss_latency::.cpu.data  35800293000                       # number of demand (read+write) miss cycles
system.l2cache.demand_miss_latency::total  35831815000                       # number of demand (read+write) miss cycles
system.l2cache.overall_miss_latency::.cpu.inst     31522000                       # number of overall miss cycles
system.l2cache.overall_miss_latency::.cpu.data  35800293000                       # number of overall miss cycles
system.l2cache.overall_miss_latency::total  35831815000                       # number of overall miss cycles
system.l2cache.demand_accesses::.cpu.inst          574                       # number of demand (read+write) accesses
system.l2cache.demand_accesses::.cpu.data       541683                       # number of demand (read+write) accesses
system.l2cache.demand_accesses::total          542257                       # number of demand (read+write) accesses
system.l2cache.overall_accesses::.cpu.inst          574                       # number of overall (read+write) accesses
system.l2cache.overall_accesses::.cpu.data       541683                       # number of overall (read+write) accesses
system.l2cache.overall_accesses::total         542257                       # number of overall (read+write) accesses
system.l2cache.demand_miss_rate::.cpu.inst     0.878049                       # miss rate for demand accesses
system.l2cache.demand_miss_rate::.cpu.data     0.999980                       # miss rate for demand accesses
system.l2cache.demand_miss_rate::total       0.999851                       # miss rate for demand accesses
system.l2cache.overall_miss_rate::.cpu.inst     0.878049                       # miss rate for overall accesses
system.l2cache.overall_miss_rate::.cpu.data     0.999980                       # miss rate for overall accesses
system.l2cache.overall_miss_rate::total      0.999851                       # miss rate for overall accesses
system.l2cache.demand_avg_miss_latency::.cpu.inst 62543.650794                       # average overall miss latency
system.l2cache.demand_avg_miss_latency::.cpu.data 66092.197861                       # average overall miss latency
system.l2cache.demand_avg_miss_latency::total 66088.899177                       # average overall miss latency
system.l2cache.overall_avg_miss_latency::.cpu.inst 62543.650794                       # average overall miss latency
system.l2cache.overall_avg_miss_latency::.cpu.data 66092.197861                       # average overall miss latency
system.l2cache.overall_avg_miss_latency::total 66088.899177                       # average overall miss latency
system.l2cache.blocked_cycles::no_mshrs             0                       # number of cycles access was blocked
system.l2cache.blocked_cycles::no_targets            0                       # number of cycles access was blocked
system.l2cache.blocked::no_mshrs                    0                       # number of cycles access was blocked
system.l2cache.blocked::no_targets                  0                       # number of cycles access was blocked
system.l2cache.avg_blocked_cycles::no_mshrs          nan                       # average number of cycles each access was blocked
system.l2cache.avg_blocked_cycles::no_targets          nan                       # average number of cycles each access was blocked
system.l2cache.writebacks::.writebacks         525224                       # number of writebacks
system.l2cache.writebacks::total               525224                       # number of writebacks
system.l2cache.demand_mshr_misses::.cpu.inst          504                       # number of demand (read+write) MSHR misses
system.l2cache.demand_mshr_misses::.cpu.data       541672                       # number of demand (read+write) MSHR misses
system.l2cache.demand_mshr_misses::total       542176                       # number of demand (read+write) MSHR misses
system.l2cache.overall_mshr_misses::.cpu.inst          504                       # number of overall MSHR misses
system.l2cache.overall_mshr_misses::.cpu.data       541672                       # number of overall MSHR misses
system.l2cache.overall_mshr_misses::total       542176                       # number of overall MSHR misses
system.l2cache.demand_mshr_miss_latency::.cpu.inst     30514000                       # number of demand (read+write) MSHR miss cycles
system.l2cache.demand_mshr_miss_latency::.cpu.data  34716949000                       # number of demand (read+write) MSHR miss cycles
system.l2cache.demand_mshr_miss_latency::total  34747463000                       # number of demand (read+write) MSHR miss cycles
system.l2cache.overall_mshr_miss_latency::.cpu.inst     30514000                       # number of overall MSHR miss cycles
system.l2cache.overall_mshr_miss_latency::.cpu.data  34716949000                       # number of overall MSHR miss cycles
system.l2cache.overall_mshr_miss_latency::total  34747463000                       # number of overall MSHR miss cycles
system.l2cache.demand_mshr_miss_rate::.cpu.inst     0.878049                       # mshr miss rate for demand accesses
system.l2cache.demand_mshr_miss_rate::.cpu.data     0.999980                       # mshr miss rate for demand accesses
system.l2cache.demand_mshr_miss_rate::total     0.999851                       # mshr miss rate for demand accesses
system.l2cache.overall_mshr_miss_rate::.cpu.inst     0.878049                       # mshr miss rate for overall accesses
system.l2cache.overall_mshr_miss_rate::.cpu.data     0.999980                       # mshr miss rate for overall accesses
system.l2cache.overall_mshr_miss_rate::total     0.999851                       # mshr miss rate for overall accesses
system.l2cache.demand_avg_mshr_miss_latency::.cpu.inst 60543.650794                       # average overall mshr miss latency
system.l2cache.demand_avg_mshr_miss_latency::.cpu.data 64092.197861                       # average overall mshr miss latency
system.l2cache.demand_avg_mshr_miss_latency::total 64088.899177                       # average overall mshr miss latency
system.l2cache.overall_avg_mshr_miss_latency::.cpu.inst 60543.650794                       # average overall mshr miss latency
system.l2cache.overall_avg_mshr_miss_latency::.cpu.data 64092.197861                       # average overall mshr miss latency
system.l2cache.overall_avg_mshr_miss_latency::total 64088.899177                       # average overall mshr miss latency
system.l2cache.replacements                    525792                       # number of replacements
system.l2cache.WritebackDirty_hits::.writebacks       541107                       # number of WritebackDirty hits
system.l2cache.WritebackDirty_hits::total       541107                       # number of WritebackDirty hits
system.l2cache.WritebackDirty_accesses::.writebacks       541107                       # number of WritebackDirty accesses(hits+misses)
system.l2cache.WritebackDirty_accesses::total       541107                       # number of WritebackDirty accesses(hits+misses)
system.l2cache.ReadExReq_hits::.cpu.data            2                       # number of ReadExReq hits
system.l2cache.ReadExReq_hits::total                2                       # number of ReadExReq hits
system.l2cache.ReadExReq_misses::.cpu.data       541581                       # number of ReadExReq misses
system.l2cache.ReadExReq_misses::total         541581                       # number of ReadExReq misses
system.l2cache.ReadExReq_miss_latency::.cpu.data  35794525000                       # number of ReadExReq miss cycles
system.l2cache.ReadExReq_miss_latency::total  35794525000                       # number of ReadExReq miss cycles
system.l2cache.ReadExReq_accesses::.cpu.data       541583                       # number of ReadExReq accesses(hits+misses)
system.l2cache.ReadExReq_accesses::total       541583                       # number of ReadExReq accesses(hits+misses)
system.l2cache.ReadExReq_miss_rate::.cpu.data     0.999996                       # miss rate for ReadExReq accesses
system.l2cache.ReadExReq_miss_rate::total     0.999996                       # miss rate for ReadExReq accesses
system.l2cache.ReadExReq_avg_miss_latency::.cpu.data 66092.652807                       # average ReadExReq miss latency
system.l2cache.ReadExReq_avg_miss_latency::total 66092.652807                       # average ReadExReq miss latency
system.l2cache.ReadExReq_mshr_misses::.cpu.data       541581                       # number of ReadExReq MSHR misses
system.l2cache.ReadExReq_mshr_misses::total       541581                       # number of ReadExReq MSHR misses
system.l2cache.ReadExReq_mshr_miss_latency::.cpu.data  34711363000                       # number of ReadExReq MSHR miss cycles
system.l2cache.ReadExReq_mshr_miss_latency::total  34711363000                       # number of ReadExReq MSHR miss cycles
system.l2cache.ReadExReq_mshr_miss_rate::.cpu.data     0.999996                       # mshr miss rate for ReadExReq accesses
system.l2cache.ReadExReq_mshr_miss_rate::total     0.999996                       # mshr miss rate for ReadExReq accesses
system.l2cache.ReadExReq_avg_mshr_miss_latency::.cpu.data 64092.652807                       # average ReadExReq mshr miss latency
system.l2cache.ReadExReq_avg_mshr_miss_latency::total 64092.652807                       # average ReadExReq mshr miss latency
system.l2cache.ReadSharedReq_hits::.cpu.inst           70                       # number of ReadSharedReq hits
system.l2cache.ReadSharedReq_hits::.cpu.data            9                       # number of ReadSharedReq hits
system.l2cache.ReadSharedReq_hits::total           79                       # number of ReadSharedReq hits
system.l2cache.ReadSharedReq_misses::.cpu.inst          504                       # number of ReadSharedReq misses
system.l2cache.ReadSharedReq_misses::.cpu.data           91                       # number of ReadSharedReq misses
system.l2cache.ReadSharedReq_misses::total          595                       # number of ReadSharedReq misses
system.l2cache.ReadSharedReq_miss_latency::.cpu.inst     31522000                       # number of ReadSharedReq miss cycles
system.l2cache.ReadSharedReq_miss_latency::.cpu.data      5768000                       # number of ReadSharedReq miss cycles
system.l2cache.ReadSharedReq_miss_latency::total     37290000                       # number of ReadSharedReq miss cycles
system.l2cache.ReadSharedReq_accesses::.cpu.inst          574                       # number of ReadSharedReq accesses(hits+misses)
system.l2cache.ReadSharedReq_accesses::.cpu.data          100                       # number of ReadSharedReq accesses(hits+misses)
system.l2cache.ReadSharedReq_accesses::total          674                       # number of ReadSharedReq accesses(hits+misses)
system.l2cache.ReadSharedReq_miss_rate::.cpu.inst     0.878049                       # miss rate for ReadSharedReq accesses
system.l2cache.ReadSharedReq_miss_rate::.cpu.data     0.910000                       # miss rate for ReadSharedReq accesses
system.l2cache.ReadSharedReq_miss_rate::total     0.882789                       # miss rate for ReadSharedReq accesses
system.l2cache.ReadSharedReq_avg_miss_latency::.cpu.inst 62543.650794                       # average ReadSharedReq miss latency
system.l2cache.ReadSharedReq_avg_miss_latency::.cpu.data 63384.615385                       # average ReadSharedReq miss latency
system.l2cache.ReadSharedReq_avg_miss_latency::total 62672.268908                       # average ReadSharedReq miss latency
system.l2cache.ReadSharedReq_mshr_misses::.cpu.inst          504                       # number of ReadSharedReq MSHR misses
system.l2cache.ReadSharedReq_mshr_misses::.cpu.data           91                       # number of ReadSharedReq MSHR misses
system.l2cache.ReadSharedReq_mshr_misses::total          595                       # number of ReadSharedReq MSHR misses
system.l2cache.ReadSharedReq_mshr_miss_latency::.cpu.inst     30514000                       # number of ReadSharedReq MSHR miss cycles
system.l2cache.ReadSharedReq_mshr_miss_latency::.cpu.data      5586000                       # number of ReadSharedReq MSHR miss cycles
system.l2cache.ReadSharedReq_mshr_miss_latency::total     36100000                       # number of ReadSharedReq MSHR miss cycles
system.l2cache.ReadSharedReq_mshr_miss_rate::.cpu.inst     0.878049                       # mshr miss rate for ReadSharedReq accesses
system.l2cache.ReadSharedReq_mshr_miss_rate::.cpu.data     0.910000                       # mshr miss rate for ReadSharedReq accesses
system.l2cache.ReadSharedReq_mshr_miss_rate::total     0.882789                       # mshr miss rate for ReadSharedReq accesses
system.l2cache.ReadSharedReq_avg_mshr_miss_latency::.cpu.inst 60543.650794                       # average ReadSharedReq mshr miss latency
system.l2cache.ReadSharedReq_avg_mshr_miss_latency::.cpu.data 61384.615385                       # average ReadSharedReq mshr miss latency
system.l2cache.ReadSharedReq_avg_mshr_miss_latency::total 60672.268908                       # average ReadSharedReq mshr miss latency
system.l2cache.power_state.pwrStateResidencyTicks::UNDEFINED  62356773000                       # Cumulative time (in ticks) in various power states
system.l2cache.tags.tagsinuse            16131.785496                       # Cycle average of tags in use
system.l2cache.tags.total_refs                1083679                       # Total number of references to valid blocks.
system.l2cache.tags.sampled_refs               542176                       # Sample count of references to valid blocks.
system.l2cache.tags.avg_refs                 1.998759                       # Average number of references to valid blocks.
system.l2cache.tags.warmup_cycle                77000                       # Cycle when the warmup percentage was hit.
system.l2cache.tags.occ_blocks::.cpu.inst     6.134125                       # Average occupied blocks per requestor
system.l2cache.tags.occ_blocks::.cpu.data 16125.651371                       # Average occupied blocks per requestor
system.l2cache.tags.occ_percent::.cpu.inst     0.000374                       # Average percentage of cache occupancy
system.l2cache.tags.occ_percent::.cpu.data     0.984232                       # Average percentage of cache occupancy
system.l2cache.tags.occ_percent::total       0.984606                       # Average percentage of cache occupancy
system.l2cache.tags.occ_task_id_blocks::1024        16384                       # Occupied blocks per task id
system.l2cache.tags.age_task_id_blocks_1024::0           88                       # Occupied blocks per task id
system.l2cache.tags.age_task_id_blocks_1024::1          779                       # Occupied blocks per task id
system.l2cache.tags.age_task_id_blocks_1024::2         7819                       # Occupied blocks per task id
system.l2cache.tags.age_task_id_blocks_1024::3         7698                       # Occupied blocks per task id
system.l2cache.tags.occ_task_id_percent::1024            1                       # Percentage of cache occupancy per task id
system.l2cache.tags.tag_accesses              1625855                       # Number of tag accesses
system.l2cache.tags.data_accesses             1625855                       # Number of data accesses
system.l2cache.tags.power_state.pwrStateResidencyTicks::UNDEFINED  62356773000                       # Cumulative time (in ticks) in various power states
system.l2bar.trans_dist::ReadResp                 674                       # Transaction distribution
system.l2bar.trans_dist::WritebackDirty        541107                       # Transaction distribution
system.l2bar.trans_dist::CleanEvict               315                       # Transaction distribution
system.l2bar.trans_dist::ReadExReq             541583                       # Transaction distribution
system.l2bar.trans_dist::ReadExResp            541583                       # Transaction distribution
system.l2bar.trans_dist::ReadSharedReq            674                       # Transaction distribution
system.l2bar.pkt_count_system.dcache.mem_side::system.l2cache.cpu_side      1624537                       # Packet count per connected master and slave (bytes)
system.l2bar.pkt_count_system.icache.mem_side::system.l2cache.cpu_side         1399                       # Packet count per connected master and slave (bytes)
system.l2bar.pkt_count::total                 1625936                       # Packet count per connected master and slave (bytes)
system.l2bar.pkt_size_system.dcache.mem_side::system.l2cache.cpu_side     69298560                       # Cumulative packet size per connected master and slave (bytes)
system.l2bar.pkt_size_system.icache.mem_side::system.l2cache.cpu_side        36736                       # Cumulative packet size per connected master and slave (bytes)
system.l2bar.pkt_size::total                 69335296                       # Cumulative packet size per connected master and slave (bytes)
system.l2bar.respLayer1.occupancy             2870000                       # Layer occupancy (ticks)
system.l2bar.respLayer1.utilization               0.0                       # Layer utilization (%)
system.l2bar.reqLayer0.occupancy           3248107000                       # Layer occupancy (ticks)
system.l2bar.reqLayer0.utilization                5.2                       # Layer utilization (%)
system.l2bar.respLayer0.occupancy          2708415000                       # Layer occupancy (ticks)
system.l2bar.respLayer0.utilization               4.3                       # Layer utilization (%)
system.l2bar.power_state.pwrStateResidencyTicks::UNDEFINED  62356773000                       # Cumulative time (in ticks) in various power states
system.cpu.dtb.walker.power_state.pwrStateResidencyTicks::UNDEFINED  62356773000                       # Cumulative time (in ticks) in various power states
system.cpu.interrupts.clk_domain.clock          16000                       # Clock period in ticks
system.cpu.itb.walker.power_state.pwrStateResidencyTicks::UNDEFINED  62356773000                       # Cumulative time (in ticks) in various power states
system.cpu.power_state.numTransitions               1                       # Number of power state transitions
system.cpu.power_state.pwrStateResidencyTicks::ON  62356773000                       # Cumulative time (in ticks) in various power states

---------- End Simulation Statistics   ----------
