
---------- Begin Simulation Statistics ----------
final_tick                                85635912000                       # Number of ticks from beginning of simulation (restored from checkpoints and never reset)
host_inst_rate                                 213053                       # Simulator instruction rate (inst/s)
host_mem_usage                                 679296                       # Number of bytes of host memory used
host_op_rate                                   412904                       # Simulator op (including micro ops) rate (op/s)
host_seconds                                     4.69                       # Real time elapsed on the host
host_tick_rate                            18244427589                       # Simulator tick rate (ticks/s)
sim_freq                                 1000000000000                       # Frequency of simulated ticks
sim_insts                                     1000000                       # Number of instructions simulated
sim_ops                                       1938078                       # Number of ops (including micro ops) simulated
sim_seconds                                  0.085636                       # Number of seconds simulated
sim_ticks                                 85635912000                       # Number of ticks simulated
system.cachebus.snoop_filter.hit_multi_requests            0                       # Number of requests hitting in the snoop filter with multiple (>1) holders of the requested data.
system.cachebus.snoop_filter.hit_multi_snoops            0                       # Number of snoops hitting in the snoop filter with multiple (>1) holders of the requested data.
system.cachebus.snoop_filter.hit_single_requests            0                       # Number of requests hitting in the snoop filter with a single holder of the requested data.
system.cachebus.snoop_filter.hit_single_snoops            0                       # Number of snoops hitting in the snoop filter with a single holder of the requested data.
system.cachebus.snoop_filter.tot_requests            0                       # Total number of requests made to the snoop filter.
system.cachebus.snoop_filter.tot_snoops             0                       # Total number of snoops made to the snoop filter.
system.cpu.Branches                            238517                       # Number of branches fetched
system.cpu.committedInsts                     1000000                       # Number of instructions committed
system.cpu.committedOps                       1938078                       # Number of ops (including micro ops) committed
system.cpu.dtb.rdAccesses                      211649                       # TLB accesses on read requests
system.cpu.dtb.rdMisses                            19                       # TLB misses on read requests
system.cpu.dtb.wrAccesses                      156381                       # TLB accesses on write requests
system.cpu.dtb.wrMisses                           213                       # TLB misses on write requests
system.cpu.idle_fraction                            0                       # Percentage of idle cycles
system.cpu.itb.rdAccesses                           0                       # TLB accesses on read requests
system.cpu.itb.rdMisses                             0                       # TLB misses on read requests
system.cpu.itb.wrAccesses                     1367856                       # TLB accesses on write requests
system.cpu.itb.wrMisses                            48                       # TLB misses on write requests
system.cpu.not_idle_fraction                        1                       # Percentage of non-idle cycles
system.cpu.numCycles                         85635912                       # number of cpu cycles simulated
system.cpu.numWorkItemsCompleted                    0                       # number of work items this cpu completed
system.cpu.numWorkItemsStarted                      0                       # number of work items this cpu started
system.cpu.num_busy_cycles                   85635912                       # Number of busy cycles
system.cpu.num_cc_register_reads              1243606                       # number of times the CC registers were read
system.cpu.num_cc_register_writes              593669                       # number of times the CC registers were written
system.cpu.num_conditional_control_insts       185149                       # number of instructions that are conditional controls
system.cpu.num_fp_alu_accesses                  17419                       # Number of float alu accesses
system.cpu.num_fp_insts                         17419                       # number of float instructions
system.cpu.num_fp_register_reads                26627                       # number of times the floating registers were read
system.cpu.num_fp_register_writes               14825                       # number of times the floating registers were written
system.cpu.num_func_calls                       21734                       # number of times a function call or return occured
system.cpu.num_idle_cycles                          0                       # Number of idle cycles
system.cpu.num_int_alu_accesses               1919640                       # Number of integer alu accesses
system.cpu.num_int_insts                      1919640                       # number of integer instructions
system.cpu.num_int_register_reads             3784013                       # number of times the integer registers were read
system.cpu.num_int_register_writes            1557399                       # number of times the integer registers were written
system.cpu.num_load_insts                      211545                       # Number of load instructions
system.cpu.num_mem_refs                        367926                       # number of memory refs
system.cpu.num_store_insts                     156381                       # Number of store instructions
system.cpu.num_vec_alu_accesses                     0                       # Number of vector alu accesses
system.cpu.num_vec_insts                            0                       # number of vector instructions
system.cpu.num_vec_register_reads                   0                       # number of times the vector registers were read
system.cpu.num_vec_register_writes                  0                       # number of times the vector registers were written
system.cpu.op_class::No_OpClass                  7175      0.37%      0.37% # Class of executed instruction
system.cpu.op_class::IntAlu                   1527213     78.80%     79.17% # Class of executed instruction
system.cpu.op_class::IntMult                    10924      0.56%     79.73% # Class of executed instruction
system.cpu.op_class::IntDiv                     11235      0.58%     80.31% # Class of executed instruction
system.cpu.op_class::FloatAdd                    1079      0.06%     80.37% # Class of executed instruction
system.cpu.op_class::FloatCmp                       0      0.00%     80.37% # Class of executed instruction
system.cpu.op_class::FloatCvt                       0      0.00%     80.37% # Class of executed instruction
system.cpu.op_class::FloatMult                      0      0.00%     80.37% # Class of executed instruction
system.cpu.op_class::FloatMultAcc                   0      0.00%     80.37% # Class of executed instruction
system.cpu.op_class::FloatDiv                       0      0.00%     80.37% # Class of executed instruction
system.cpu.op_class::FloatMisc                      0      0.00%     80.37% # Class of executed instruction
system.cpu.op_class::FloatSqrt                      0      0.00%     80.37% # Class of executed instruction
system.cpu.op_class::SimdAdd                        0      0.00%     80.37% # Class of executed instruction
system.cpu.op_class::SimdAddAcc                     0      0.00%     80.37% # Class of executed instruction
system.cpu.op_class::SimdAlu                      140      0.01%     80.37% # Class of executed instruction
system.cpu.op_class::SimdCmp                       14      0.00%     80.37% # Class of executed instruction
system.cpu.op_class::SimdCvt                     2482      0.13%     80.50% # Class of executed instruction
system.cpu.op_class::SimdMisc                    9995      0.52%     81.02% # Class of executed instruction
system.cpu.op_class::SimdMult                       0      0.00%     81.02% # Class of executed instruction
system.cpu.op_class::SimdMultAcc                    0      0.00%     81.02% # Class of executed instruction
system.cpu.op_class::SimdShift                      0      0.00%     81.02% # Class of executed instruction
system.cpu.op_class::SimdShiftAcc                   0      0.00%     81.02% # Class of executed instruction
system.cpu.op_class::SimdDiv                        0      0.00%     81.02% # Class of executed instruction
system.cpu.op_class::SimdSqrt                       0      0.00%     81.02% # Class of executed instruction
system.cpu.op_class::SimdFloatAdd                   0      0.00%     81.02% # Class of executed instruction
system.cpu.op_class::SimdFloatAlu                   0      0.00%     81.02% # Class of executed instruction
system.cpu.op_class::SimdFloatCmp                   0      0.00%     81.02% # Class of executed instruction
system.cpu.op_class::SimdFloatCvt                   0      0.00%     81.02% # Class of executed instruction
system.cpu.op_class::SimdFloatDiv                   0      0.00%     81.02% # Class of executed instruction
system.cpu.op_class::SimdFloatMisc                  0      0.00%     81.02% # Class of executed instruction
system.cpu.op_class::SimdFloatMult                  0      0.00%     81.02% # Class of executed instruction
system.cpu.op_class::SimdFloatMultAcc               0      0.00%     81.02% # Class of executed instruction
system.cpu.op_class::SimdFloatSqrt                  0      0.00%     81.02% # Class of executed instruction
system.cpu.op_class::SimdReduceAdd                  0      0.00%     81.02% # Class of executed instruction
system.cpu.op_class::SimdReduceAlu                  0      0.00%     81.02% # Class of executed instruction
system.cpu.op_class::SimdReduceCmp                  0      0.00%     81.02% # Class of executed instruction
system.cpu.op_class::SimdFloatReduceAdd             0      0.00%     81.02% # Class of executed instruction
system.cpu.op_class::SimdFloatReduceCmp             0      0.00%     81.02% # Class of executed instruction
system.cpu.op_class::SimdAes                        0      0.00%     81.02% # Class of executed instruction
system.cpu.op_class::SimdAesMix                     0      0.00%     81.02% # Class of executed instruction
system.cpu.op_class::SimdSha1Hash                   0      0.00%     81.02% # Class of executed instruction
system.cpu.op_class::SimdSha1Hash2                  0      0.00%     81.02% # Class of executed instruction
system.cpu.op_class::SimdSha256Hash                 0      0.00%     81.02% # Class of executed instruction
system.cpu.op_class::SimdSha256Hash2                0      0.00%     81.02% # Class of executed instruction
system.cpu.op_class::SimdShaSigma2                  0      0.00%     81.02% # Class of executed instruction
system.cpu.op_class::SimdShaSigma3                  0      0.00%     81.02% # Class of executed instruction
system.cpu.op_class::SimdPredAlu                    0      0.00%     81.02% # Class of executed instruction
system.cpu.op_class::MemRead                   209107     10.79%     91.81% # Class of executed instruction
system.cpu.op_class::MemWrite                  156229      8.06%     99.87% # Class of executed instruction
system.cpu.op_class::FloatMemRead                2438      0.13%     99.99% # Class of executed instruction
system.cpu.op_class::FloatMemWrite                152      0.01%    100.00% # Class of executed instruction
system.cpu.op_class::IprAccess                      0      0.00%    100.00% # Class of executed instruction
system.cpu.op_class::InstPrefetch                   0      0.00%    100.00% # Class of executed instruction
system.cpu.op_class::total                    1938183                       # Class of executed instruction
system.cpu.workload.numSyscalls                    23                       # Number of system calls
system.membus.snoop_filter.hit_multi_requests            0                       # Number of requests hitting in the snoop filter with multiple (>1) holders of the requested data.
system.membus.snoop_filter.hit_multi_snoops            0                       # Number of snoops hitting in the snoop filter with multiple (>1) holders of the requested data.
system.membus.snoop_filter.hit_single_requests            0                       # Number of requests hitting in the snoop filter with a single holder of the requested data.
system.membus.snoop_filter.hit_single_snoops            0                       # Number of snoops hitting in the snoop filter with a single holder of the requested data.
system.membus.snoop_filter.tot_requests             0                       # Total number of requests made to the snoop filter.
system.membus.snoop_filter.tot_snoops               0                       # Total number of snoops made to the snoop filter.
system.membus.trans_dist::ReadReq             1579504                       # Transaction distribution
system.membus.trans_dist::ReadResp            1579503                       # Transaction distribution
system.membus.trans_dist::WriteReq             156277                       # Transaction distribution
system.membus.trans_dist::WriteResp            156277                       # Transaction distribution
system.membus.pkt_count_system.cpu.icache_port::system.mem_ctrl.port      2735712                       # Packet count per connected master and slave (bytes)
system.membus.pkt_count_system.cpu.icache_port::total      2735712                       # Packet count per connected master and slave (bytes)
system.membus.pkt_count_system.memobj.mem_side::system.mem_ctrl.port       735849                       # Packet count per connected master and slave (bytes)
system.membus.pkt_count_system.memobj.mem_side::total       735849                       # Packet count per connected master and slave (bytes)
system.membus.pkt_count::total                3471561                       # Packet count per connected master and slave (bytes)
system.membus.pkt_size_system.cpu.icache_port::system.mem_ctrl.port     10942848                       # Cumulative packet size per connected master and slave (bytes)
system.membus.pkt_size_system.cpu.icache_port::total     10942848                       # Cumulative packet size per connected master and slave (bytes)
system.membus.pkt_size_system.memobj.mem_side::system.mem_ctrl.port      2330310                       # Cumulative packet size per connected master and slave (bytes)
system.membus.pkt_size_system.memobj.mem_side::total      2330310                       # Cumulative packet size per connected master and slave (bytes)
system.membus.pkt_size::total                13273158                       # Cumulative packet size per connected master and slave (bytes)
system.membus.snoops                                0                       # Total snoops (count)
system.membus.snoopTraffic                          0                       # Total snoop traffic (bytes)
system.membus.snoop_fanout::samples           1735781                       # Request fanout histogram
system.membus.snoop_fanout::mean                    0                       # Request fanout histogram
system.membus.snoop_fanout::stdev                   0                       # Request fanout histogram
system.membus.snoop_fanout::underflows              0      0.00%      0.00% # Request fanout histogram
system.membus.snoop_fanout::0                 1735781    100.00%    100.00% # Request fanout histogram
system.membus.snoop_fanout::1                       0      0.00%    100.00% # Request fanout histogram
system.membus.snoop_fanout::overflows               0      0.00%    100.00% # Request fanout histogram
system.membus.snoop_fanout::min_value               0                       # Request fanout histogram
system.membus.snoop_fanout::max_value               0                       # Request fanout histogram
system.membus.snoop_fanout::total             1735781                       # Request fanout histogram
system.membus.reqLayer2.occupancy          1892058000                       # Layer occupancy (ticks)
system.membus.reqLayer2.utilization               2.2                       # Layer utilization (%)
system.membus.respLayer1.occupancy          644993500                       # Layer occupancy (ticks)
system.membus.respLayer1.utilization              0.8                       # Layer utilization (%)
system.membus.respLayer0.occupancy         3108701500                       # Layer occupancy (ticks)
system.membus.respLayer0.utilization              3.6                       # Layer utilization (%)
system.membus.power_state.pwrStateResidencyTicks::UNDEFINED  85635912000                       # Cumulative time (in ticks) in various power states
system.mem_ctrl.bytes_read::.cpu.inst        10942848                       # Number of bytes read from this memory
system.mem_ctrl.bytes_read::.cpu.data         1283662                       # Number of bytes read from this memory
system.mem_ctrl.bytes_read::total            12226510                       # Number of bytes read from this memory
system.mem_ctrl.bytes_inst_read::.cpu.inst     10942848                       # Number of instructions bytes read from this memory
system.mem_ctrl.bytes_inst_read::total       10942848                       # Number of instructions bytes read from this memory
system.mem_ctrl.bytes_written::.cpu.data      1046648                       # Number of bytes written to this memory
system.mem_ctrl.bytes_written::total          1046648                       # Number of bytes written to this memory
system.mem_ctrl.num_reads::.cpu.inst          1367856                       # Number of read requests responded to by this memory
system.mem_ctrl.num_reads::.cpu.data           211647                       # Number of read requests responded to by this memory
system.mem_ctrl.num_reads::total              1579503                       # Number of read requests responded to by this memory
system.mem_ctrl.num_writes::.cpu.data          156277                       # Number of write requests responded to by this memory
system.mem_ctrl.num_writes::total              156277                       # Number of write requests responded to by this memory
system.mem_ctrl.bw_read::.cpu.inst          127783400                       # Total read bandwidth from this memory (bytes/s)
system.mem_ctrl.bw_read::.cpu.data           14989763                       # Total read bandwidth from this memory (bytes/s)
system.mem_ctrl.bw_read::total              142773163                       # Total read bandwidth from this memory (bytes/s)
system.mem_ctrl.bw_inst_read::.cpu.inst     127783400                       # Instruction read bandwidth from this memory (bytes/s)
system.mem_ctrl.bw_inst_read::total         127783400                       # Instruction read bandwidth from this memory (bytes/s)
system.mem_ctrl.bw_write::.cpu.data          12222069                       # Write bandwidth from this memory (bytes/s)
system.mem_ctrl.bw_write::total              12222069                       # Write bandwidth from this memory (bytes/s)
system.mem_ctrl.bw_total::.cpu.inst         127783400                       # Total bandwidth to/from this memory (bytes/s)
system.mem_ctrl.bw_total::.cpu.data          27211831                       # Total bandwidth to/from this memory (bytes/s)
system.mem_ctrl.bw_total::total             154995231                       # Total bandwidth to/from this memory (bytes/s)
system.mem_ctrl.avgPriority_.cpu.inst::samples   1367856.00                       # Average QoS priority value for accepted requests
system.mem_ctrl.avgPriority_.cpu.data::samples    205343.00                       # Average QoS priority value for accepted requests
system.mem_ctrl.priorityMinLatency       0.000000018750                       # per QoS priority minimum request to response latency (s)
system.mem_ctrl.priorityMaxLatency       0.001245633750                       # per QoS priority maximum request to response latency (s)
system.mem_ctrl.numReadWriteTurnArounds           989                       # Number of turnarounds from READ to WRITE
system.mem_ctrl.numWriteReadTurnArounds           989                       # Number of turnarounds from WRITE to READ
system.mem_ctrl.numStayReadState              3291950                       # Number of times bus staying in READ state
system.mem_ctrl.numStayWriteState               14854                       # Number of times bus staying in WRITE state
system.mem_ctrl.readReqs                      1579504                       # Number of read requests accepted
system.mem_ctrl.writeReqs                      156277                       # Number of write requests accepted
system.mem_ctrl.readBursts                    1579504                       # Number of DRAM read bursts, including those serviced by the write queue
system.mem_ctrl.writeBursts                    156277                       # Number of DRAM write bursts, including those merged in the write queue
system.mem_ctrl.servicedByWrQ                   22160                       # Number of DRAM read bursts serviced by the write queue
system.mem_ctrl.mergedWrBursts                 140422                       # Number of DRAM write bursts merged with an existing one
system.mem_ctrl.neitherReadNorWriteReqs             0                       # Number of requests that are neither read nor write
system.mem_ctrl.perBankRdBursts::0             116175                       # Per bank write bursts
system.mem_ctrl.perBankRdBursts::1               1806                       # Per bank write bursts
system.mem_ctrl.perBankRdBursts::2                897                       # Per bank write bursts
system.mem_ctrl.perBankRdBursts::3             272465                       # Per bank write bursts
system.mem_ctrl.perBankRdBursts::4             453585                       # Per bank write bursts
system.mem_ctrl.perBankRdBursts::5              15492                       # Per bank write bursts
system.mem_ctrl.perBankRdBursts::6               1238                       # Per bank write bursts
system.mem_ctrl.perBankRdBursts::7               2520                       # Per bank write bursts
system.mem_ctrl.perBankRdBursts::8              15298                       # Per bank write bursts
system.mem_ctrl.perBankRdBursts::9             293062                       # Per bank write bursts
system.mem_ctrl.perBankRdBursts::10            269174                       # Per bank write bursts
system.mem_ctrl.perBankRdBursts::11              3361                       # Per bank write bursts
system.mem_ctrl.perBankRdBursts::12              7089                       # Per bank write bursts
system.mem_ctrl.perBankRdBursts::13             79228                       # Per bank write bursts
system.mem_ctrl.perBankRdBursts::14             25584                       # Per bank write bursts
system.mem_ctrl.perBankRdBursts::15               370                       # Per bank write bursts
system.mem_ctrl.perBankWrBursts::0                364                       # Per bank write bursts
system.mem_ctrl.perBankWrBursts::1                596                       # Per bank write bursts
system.mem_ctrl.perBankWrBursts::2                274                       # Per bank write bursts
system.mem_ctrl.perBankWrBursts::3                270                       # Per bank write bursts
system.mem_ctrl.perBankWrBursts::4                345                       # Per bank write bursts
system.mem_ctrl.perBankWrBursts::5                289                       # Per bank write bursts
system.mem_ctrl.perBankWrBursts::6                350                       # Per bank write bursts
system.mem_ctrl.perBankWrBursts::7                364                       # Per bank write bursts
system.mem_ctrl.perBankWrBursts::8                413                       # Per bank write bursts
system.mem_ctrl.perBankWrBursts::9                339                       # Per bank write bursts
system.mem_ctrl.perBankWrBursts::10              9459                       # Per bank write bursts
system.mem_ctrl.perBankWrBursts::11               820                       # Per bank write bursts
system.mem_ctrl.perBankWrBursts::12               256                       # Per bank write bursts
system.mem_ctrl.perBankWrBursts::13              1046                       # Per bank write bursts
system.mem_ctrl.perBankWrBursts::14               395                       # Per bank write bursts
system.mem_ctrl.perBankWrBursts::15               250                       # Per bank write bursts
system.mem_ctrl.avgRdQLen                        1.00                       # Average read queue length when enqueuing
system.mem_ctrl.avgWrQLen                       25.96                       # Average write queue length when enqueuing
system.mem_ctrl.totQLat                    5557193250                       # Total ticks spent queuing
system.mem_ctrl.totBusLat                  7786720000                       # Total ticks spent in databus transfers
system.mem_ctrl.totMemAccLat              34757393250                       # Total ticks spent from burst creation until serviced by the DRAM
system.mem_ctrl.avgQLat                       3568.38                       # Average queueing delay per DRAM burst
system.mem_ctrl.avgBusLat                     5000.00                       # Average bus latency per DRAM burst
system.mem_ctrl.avgMemAccLat                 22318.38                       # Average memory access latency per DRAM burst
system.mem_ctrl.numRdRetry                          0                       # Number of times read queue was full causing retry
system.mem_ctrl.numWrRetry                          0                       # Number of times write queue was full causing retry
system.mem_ctrl.readRowHits                   1396569                       # Number of row buffer hits during reads
system.mem_ctrl.writeRowHits                    12502                       # Number of row buffer hits during writes
system.mem_ctrl.readRowHitRate                  89.68                       # Row buffer hit rate for reads
system.mem_ctrl.writeRowHitRate                 78.85                       # Row buffer hit rate for writes
system.mem_ctrl.readPktSize::0                  30592                       # Read request sizes (log2)
system.mem_ctrl.readPktSize::1                   1621                       # Read request sizes (log2)
system.mem_ctrl.readPktSize::2                  46360                       # Read request sizes (log2)
system.mem_ctrl.readPktSize::3                1500931                       # Read request sizes (log2)
system.mem_ctrl.readPktSize::4                      0                       # Read request sizes (log2)
system.mem_ctrl.readPktSize::5                      0                       # Read request sizes (log2)
system.mem_ctrl.readPktSize::6                      0                       # Read request sizes (log2)
system.mem_ctrl.writePktSize::0                 10182                       # Write request sizes (log2)
system.mem_ctrl.writePktSize::1                   541                       # Write request sizes (log2)
system.mem_ctrl.writePktSize::2                 32262                       # Write request sizes (log2)
system.mem_ctrl.writePktSize::3                113292                       # Write request sizes (log2)
system.mem_ctrl.writePktSize::4                     0                       # Write request sizes (log2)
system.mem_ctrl.writePktSize::5                     0                       # Write request sizes (log2)
system.mem_ctrl.writePktSize::6                     0                       # Write request sizes (log2)
system.mem_ctrl.rdQLenPdf::0                  1557241                       # What read queue length does an incoming req see
system.mem_ctrl.rdQLenPdf::1                      103                       # What read queue length does an incoming req see
system.mem_ctrl.rdQLenPdf::2                        0                       # What read queue length does an incoming req see
system.mem_ctrl.rdQLenPdf::3                        0                       # What read queue length does an incoming req see
system.mem_ctrl.rdQLenPdf::4                        0                       # What read queue length does an incoming req see
system.mem_ctrl.rdQLenPdf::5                        0                       # What read queue length does an incoming req see
system.mem_ctrl.rdQLenPdf::6                        0                       # What read queue length does an incoming req see
system.mem_ctrl.rdQLenPdf::7                        0                       # What read queue length does an incoming req see
system.mem_ctrl.rdQLenPdf::8                        0                       # What read queue length does an incoming req see
system.mem_ctrl.rdQLenPdf::9                        0                       # What read queue length does an incoming req see
system.mem_ctrl.rdQLenPdf::10                       0                       # What read queue length does an incoming req see
system.mem_ctrl.rdQLenPdf::11                       0                       # What read queue length does an incoming req see
system.mem_ctrl.rdQLenPdf::12                       0                       # What read queue length does an incoming req see
system.mem_ctrl.rdQLenPdf::13                       0                       # What read queue length does an incoming req see
system.mem_ctrl.rdQLenPdf::14                       0                       # What read queue length does an incoming req see
system.mem_ctrl.rdQLenPdf::15                       0                       # What read queue length does an incoming req see
system.mem_ctrl.rdQLenPdf::16                       0                       # What read queue length does an incoming req see
system.mem_ctrl.rdQLenPdf::17                       0                       # What read queue length does an incoming req see
system.mem_ctrl.rdQLenPdf::18                       0                       # What read queue length does an incoming req see
system.mem_ctrl.rdQLenPdf::19                       0                       # What read queue length does an incoming req see
system.mem_ctrl.rdQLenPdf::20                       0                       # What read queue length does an incoming req see
system.mem_ctrl.rdQLenPdf::21                       0                       # What read queue length does an incoming req see
system.mem_ctrl.rdQLenPdf::22                       0                       # What read queue length does an incoming req see
system.mem_ctrl.rdQLenPdf::23                       0                       # What read queue length does an incoming req see
system.mem_ctrl.rdQLenPdf::24                       0                       # What read queue length does an incoming req see
system.mem_ctrl.rdQLenPdf::25                       0                       # What read queue length does an incoming req see
system.mem_ctrl.rdQLenPdf::26                       0                       # What read queue length does an incoming req see
system.mem_ctrl.rdQLenPdf::27                       0                       # What read queue length does an incoming req see
system.mem_ctrl.rdQLenPdf::28                       0                       # What read queue length does an incoming req see
system.mem_ctrl.rdQLenPdf::29                       0                       # What read queue length does an incoming req see
system.mem_ctrl.rdQLenPdf::30                       0                       # What read queue length does an incoming req see
system.mem_ctrl.rdQLenPdf::31                       0                       # What read queue length does an incoming req see
system.mem_ctrl.wrQLenPdf::0                        1                       # What write queue length does an incoming req see
system.mem_ctrl.wrQLenPdf::1                        1                       # What write queue length does an incoming req see
system.mem_ctrl.wrQLenPdf::2                        1                       # What write queue length does an incoming req see
system.mem_ctrl.wrQLenPdf::3                        1                       # What write queue length does an incoming req see
system.mem_ctrl.wrQLenPdf::4                        1                       # What write queue length does an incoming req see
system.mem_ctrl.wrQLenPdf::5                        1                       # What write queue length does an incoming req see
system.mem_ctrl.wrQLenPdf::6                        1                       # What write queue length does an incoming req see
system.mem_ctrl.wrQLenPdf::7                        1                       # What write queue length does an incoming req see
system.mem_ctrl.wrQLenPdf::8                        1                       # What write queue length does an incoming req see
system.mem_ctrl.wrQLenPdf::9                        1                       # What write queue length does an incoming req see
system.mem_ctrl.wrQLenPdf::10                       1                       # What write queue length does an incoming req see
system.mem_ctrl.wrQLenPdf::11                       1                       # What write queue length does an incoming req see
system.mem_ctrl.wrQLenPdf::12                       1                       # What write queue length does an incoming req see
system.mem_ctrl.wrQLenPdf::13                       1                       # What write queue length does an incoming req see
system.mem_ctrl.wrQLenPdf::14                       1                       # What write queue length does an incoming req see
system.mem_ctrl.wrQLenPdf::15                       4                       # What write queue length does an incoming req see
system.mem_ctrl.wrQLenPdf::16                       4                       # What write queue length does an incoming req see
system.mem_ctrl.wrQLenPdf::17                     990                       # What write queue length does an incoming req see
system.mem_ctrl.wrQLenPdf::18                     990                       # What write queue length does an incoming req see
system.mem_ctrl.wrQLenPdf::19                     990                       # What write queue length does an incoming req see
system.mem_ctrl.wrQLenPdf::20                     990                       # What write queue length does an incoming req see
system.mem_ctrl.wrQLenPdf::21                     990                       # What write queue length does an incoming req see
system.mem_ctrl.wrQLenPdf::22                     990                       # What write queue length does an incoming req see
system.mem_ctrl.wrQLenPdf::23                     990                       # What write queue length does an incoming req see
system.mem_ctrl.wrQLenPdf::24                     990                       # What write queue length does an incoming req see
system.mem_ctrl.wrQLenPdf::25                     989                       # What write queue length does an incoming req see
system.mem_ctrl.wrQLenPdf::26                     989                       # What write queue length does an incoming req see
system.mem_ctrl.wrQLenPdf::27                     989                       # What write queue length does an incoming req see
system.mem_ctrl.wrQLenPdf::28                     989                       # What write queue length does an incoming req see
system.mem_ctrl.wrQLenPdf::29                     989                       # What write queue length does an incoming req see
system.mem_ctrl.wrQLenPdf::30                     989                       # What write queue length does an incoming req see
system.mem_ctrl.wrQLenPdf::31                     989                       # What write queue length does an incoming req see
system.mem_ctrl.wrQLenPdf::32                     989                       # What write queue length does an incoming req see
system.mem_ctrl.wrQLenPdf::33                       0                       # What write queue length does an incoming req see
system.mem_ctrl.wrQLenPdf::34                       0                       # What write queue length does an incoming req see
system.mem_ctrl.wrQLenPdf::35                       0                       # What write queue length does an incoming req see
system.mem_ctrl.wrQLenPdf::36                       0                       # What write queue length does an incoming req see
system.mem_ctrl.wrQLenPdf::37                       0                       # What write queue length does an incoming req see
system.mem_ctrl.wrQLenPdf::38                       0                       # What write queue length does an incoming req see
system.mem_ctrl.wrQLenPdf::39                       0                       # What write queue length does an incoming req see
system.mem_ctrl.wrQLenPdf::40                       0                       # What write queue length does an incoming req see
system.mem_ctrl.wrQLenPdf::41                       0                       # What write queue length does an incoming req see
system.mem_ctrl.wrQLenPdf::42                       0                       # What write queue length does an incoming req see
system.mem_ctrl.wrQLenPdf::43                       0                       # What write queue length does an incoming req see
system.mem_ctrl.wrQLenPdf::44                       0                       # What write queue length does an incoming req see
system.mem_ctrl.wrQLenPdf::45                       0                       # What write queue length does an incoming req see
system.mem_ctrl.wrQLenPdf::46                       0                       # What write queue length does an incoming req see
system.mem_ctrl.wrQLenPdf::47                       0                       # What write queue length does an incoming req see
system.mem_ctrl.wrQLenPdf::48                       0                       # What write queue length does an incoming req see
system.mem_ctrl.wrQLenPdf::49                       0                       # What write queue length does an incoming req see
system.mem_ctrl.wrQLenPdf::50                       0                       # What write queue length does an incoming req see
system.mem_ctrl.wrQLenPdf::51                       0                       # What write queue length does an incoming req see
system.mem_ctrl.wrQLenPdf::52                       0                       # What write queue length does an incoming req see
system.mem_ctrl.wrQLenPdf::53                       0                       # What write queue length does an incoming req see
system.mem_ctrl.wrQLenPdf::54                       0                       # What write queue length does an incoming req see
system.mem_ctrl.wrQLenPdf::55                       0                       # What write queue length does an incoming req see
system.mem_ctrl.wrQLenPdf::56                       0                       # What write queue length does an incoming req see
system.mem_ctrl.wrQLenPdf::57                       0                       # What write queue length does an incoming req see
system.mem_ctrl.wrQLenPdf::58                       0                       # What write queue length does an incoming req see
system.mem_ctrl.wrQLenPdf::59                       0                       # What write queue length does an incoming req see
system.mem_ctrl.wrQLenPdf::60                       0                       # What write queue length does an incoming req see
system.mem_ctrl.wrQLenPdf::61                       0                       # What write queue length does an incoming req see
system.mem_ctrl.wrQLenPdf::62                       0                       # What write queue length does an incoming req see
system.mem_ctrl.wrQLenPdf::63                       0                       # What write queue length does an incoming req see
system.mem_ctrl.bytesPerActivate::samples       164100                       # Bytes accessed per row activation
system.mem_ctrl.bytesPerActivate::mean     613.544327                       # Bytes accessed per row activation
system.mem_ctrl.bytesPerActivate::gmean    382.622959                       # Bytes accessed per row activation
system.mem_ctrl.bytesPerActivate::stdev    422.306832                       # Bytes accessed per row activation
system.mem_ctrl.bytesPerActivate::0-127         38656     23.56%     23.56% # Bytes accessed per row activation
system.mem_ctrl.bytesPerActivate::128-255        14225      8.67%     32.22% # Bytes accessed per row activation
system.mem_ctrl.bytesPerActivate::256-383        10527      6.41%     38.64% # Bytes accessed per row activation
system.mem_ctrl.bytesPerActivate::384-511         6887      4.20%     42.84% # Bytes accessed per row activation
system.mem_ctrl.bytesPerActivate::512-639         4896      2.98%     45.82% # Bytes accessed per row activation
system.mem_ctrl.bytesPerActivate::640-767         5916      3.61%     49.43% # Bytes accessed per row activation
system.mem_ctrl.bytesPerActivate::768-895         4804      2.93%     52.35% # Bytes accessed per row activation
system.mem_ctrl.bytesPerActivate::896-1023         4137      2.52%     54.87% # Bytes accessed per row activation
system.mem_ctrl.bytesPerActivate::1024-1151        74052     45.13%    100.00% # Bytes accessed per row activation
system.mem_ctrl.bytesPerActivate::total        164100                       # Bytes accessed per row activation
system.mem_ctrl.rdPerTurnAround::samples          989                       # Reads before turning the bus around for writes
system.mem_ctrl.rdPerTurnAround::mean     1574.255814                       # Reads before turning the bus around for writes
system.mem_ctrl.rdPerTurnAround::gmean    1250.521575                       # Reads before turning the bus around for writes
system.mem_ctrl.rdPerTurnAround::stdev     973.467360                       # Reads before turning the bus around for writes
system.mem_ctrl.rdPerTurnAround::256-511          119     12.03%     12.03% # Reads before turning the bus around for writes
system.mem_ctrl.rdPerTurnAround::512-767          293     29.63%     41.66% # Reads before turning the bus around for writes
system.mem_ctrl.rdPerTurnAround::768-1023           18      1.82%     43.48% # Reads before turning the bus around for writes
system.mem_ctrl.rdPerTurnAround::1024-1279            5      0.51%     43.98% # Reads before turning the bus around for writes
system.mem_ctrl.rdPerTurnAround::1280-1535           43      4.35%     48.33% # Reads before turning the bus around for writes
system.mem_ctrl.rdPerTurnAround::1536-1791           25      2.53%     50.86% # Reads before turning the bus around for writes
system.mem_ctrl.rdPerTurnAround::1792-2047            9      0.91%     51.77% # Reads before turning the bus around for writes
system.mem_ctrl.rdPerTurnAround::2048-2303          156     15.77%     67.54% # Reads before turning the bus around for writes
system.mem_ctrl.rdPerTurnAround::2304-2559          229     23.15%     90.70% # Reads before turning the bus around for writes
system.mem_ctrl.rdPerTurnAround::2560-2815           58      5.86%     96.56% # Reads before turning the bus around for writes
system.mem_ctrl.rdPerTurnAround::2816-3071           21      2.12%     98.69% # Reads before turning the bus around for writes
system.mem_ctrl.rdPerTurnAround::4608-4863            1      0.10%     98.79% # Reads before turning the bus around for writes
system.mem_ctrl.rdPerTurnAround::4864-5119            8      0.81%     99.60% # Reads before turning the bus around for writes
system.mem_ctrl.rdPerTurnAround::5120-5375            3      0.30%     99.90% # Reads before turning the bus around for writes
system.mem_ctrl.rdPerTurnAround::5888-6143            1      0.10%    100.00% # Reads before turning the bus around for writes
system.mem_ctrl.rdPerTurnAround::total            989                       # Reads before turning the bus around for writes
system.mem_ctrl.wrPerTurnAround::samples          989                       # Writes before turning the bus around for reads
system.mem_ctrl.wrPerTurnAround::mean       16.006067                       # Writes before turning the bus around for reads
system.mem_ctrl.wrPerTurnAround::gmean      16.005717                       # Writes before turning the bus around for reads
system.mem_ctrl.wrPerTurnAround::stdev       0.110040                       # Writes before turning the bus around for reads
system.mem_ctrl.wrPerTurnAround::16               986     99.70%     99.70% # Writes before turning the bus around for reads
system.mem_ctrl.wrPerTurnAround::18                 3      0.30%    100.00% # Writes before turning the bus around for reads
system.mem_ctrl.wrPerTurnAround::total            989                       # Writes before turning the bus around for reads
system.mem_ctrl.bytesReadDRAM                99670016                       # Total number of bytes read from DRAM
system.mem_ctrl.bytesReadWrQ                  1418240                       # Total number of bytes read from write queue
system.mem_ctrl.bytesWritten                  1013120                       # Total number of bytes written to DRAM
system.mem_ctrl.bytesReadSys                 12226518                       # Total read bytes from the system interface side
system.mem_ctrl.bytesWrittenSys               1046648                       # Total written bytes from the system interface side
system.mem_ctrl.avgRdBW                       1163.88                       # Average DRAM read bandwidth in MiByte/s
system.mem_ctrl.avgWrBW                         11.83                       # Average achieved write bandwidth in MiByte/s
system.mem_ctrl.avgRdBWSys                     142.77                       # Average system read bandwidth in MiByte/s
system.mem_ctrl.avgWrBWSys                      12.22                       # Average system write bandwidth in MiByte/s
system.mem_ctrl.peakBW                       12800.00                       # Theoretical peak bandwidth in MiByte/s
system.mem_ctrl.busUtil                          9.19                       # Data bus utilization in percentage
system.mem_ctrl.busUtilRead                      9.09                       # Data bus utilization in percentage for reads
system.mem_ctrl.busUtilWrite                     0.09                       # Data bus utilization in percentage for writes
system.mem_ctrl.totGap                    85635835000                       # Total gap between requests
system.mem_ctrl.avgGap                       49335.62                       # Average gap between requests
system.mem_ctrl.masterReadBytes::.cpu.inst     10942848                       # Per-master bytes read from memory
system.mem_ctrl.masterReadBytes::.cpu.data      1137083                       # Per-master bytes read from memory
system.mem_ctrl.masterWriteBytes::.cpu.data       107682                       # Per-master bytes write to memory
system.mem_ctrl.masterReadRate::.cpu.inst 127783400.029651120305                       # Per-master bytes read from memory rate (Bytes/sec)
system.mem_ctrl.masterReadRate::.cpu.data 13278109.305357780308                       # Per-master bytes read from memory rate (Bytes/sec)
system.mem_ctrl.masterWriteRate::.cpu.data 1257439.752612198470                       # Per-master bytes write to memory rate (Bytes/sec)
system.mem_ctrl.masterReadAccesses::.cpu.inst      1367856                       # Per-master read serviced memory accesses
system.mem_ctrl.masterReadAccesses::.cpu.data       211648                       # Per-master read serviced memory accesses
system.mem_ctrl.masterWriteAccesses::.cpu.data       156277                       # Per-master write serviced memory accesses
system.mem_ctrl.masterReadTotalLat::.cpu.inst  29902270500                       # Per-master read total memory access latency
system.mem_ctrl.masterReadTotalLat::.cpu.data   4855122750                       # Per-master read total memory access latency
system.mem_ctrl.masterWriteTotalLat::.cpu.data 2198474484250                       # Per-master write total memory access latency
system.mem_ctrl.masterReadAvgLat::.cpu.inst     21860.69                       # Per-master read average memory access latency
system.mem_ctrl.masterReadAvgLat::.cpu.data     22939.61                       # Per-master read average memory access latency
system.mem_ctrl.masterWriteAvgLat::.cpu.data  14067805.78                       # Per-master write average memory access latency
system.mem_ctrl.pageHitRate                     89.57                       # Row buffer hit rate, read and write combined
system.mem_ctrl.rank1.actEnergy             641157720                       # Energy for activate commands per rank (pJ)
system.mem_ctrl.rank1.preEnergy             340775820                       # Energy for precharge commands per rank (pJ)
system.mem_ctrl.rank1.readEnergy           4949198100                       # Energy for read commands per rank (pJ)
system.mem_ctrl.rank1.writeEnergy            67745160                       # Energy for write commands per rank (pJ)
system.mem_ctrl.rank1.refreshEnergy      6759810720.000001                       # Energy for refresh commands per rank (pJ)
system.mem_ctrl.rank1.actBackEnergy       37410042210                       # Energy for active background per rank (pJ)
system.mem_ctrl.rank1.preBackEnergy        1380996960                       # Energy for precharge background per rank (pJ)
system.mem_ctrl.rank1.actPowerDownEnergy            0                       # Energy for active power-down per rank (pJ)
system.mem_ctrl.rank1.prePowerDownEnergy            0                       # Energy for precharge power-down per rank (pJ)
system.mem_ctrl.rank1.selfRefreshEnergy             0                       # Energy for self refresh per rank (pJ)
system.mem_ctrl.rank1.totalEnergy         51549726690                       # Total energy per rank (pJ)
system.mem_ctrl.rank1.averagePower         601.963890                       # Core power per rank (mW)
system.mem_ctrl.rank1.totalIdleTime                 0                       # Total Idle time Per DRAM Rank
system.mem_ctrl.rank1.memoryStateTime::IDLE   3150266500                       # Time in different power states
system.mem_ctrl.rank1.memoryStateTime::REF   2859480000                       # Time in different power states
system.mem_ctrl.rank1.memoryStateTime::SREF            0                       # Time in different power states
system.mem_ctrl.rank1.memoryStateTime::PRE_PDN            0                       # Time in different power states
system.mem_ctrl.rank1.memoryStateTime::ACT  79626165500                       # Time in different power states
system.mem_ctrl.rank1.memoryStateTime::ACT_PDN            0                       # Time in different power states
system.mem_ctrl.rank0.actEnergy             530530560                       # Energy for activate commands per rank (pJ)
system.mem_ctrl.rank0.preEnergy             281983680                       # Energy for precharge commands per rank (pJ)
system.mem_ctrl.rank0.readEnergy           6170230920                       # Energy for read commands per rank (pJ)
system.mem_ctrl.rank0.writeEnergy            14887440                       # Energy for write commands per rank (pJ)
system.mem_ctrl.rank0.refreshEnergy      6759810720.000001                       # Energy for refresh commands per rank (pJ)
system.mem_ctrl.rank0.actBackEnergy       30698947140                       # Energy for active background per rank (pJ)
system.mem_ctrl.rank0.preBackEnergy        7032445440                       # Energy for precharge background per rank (pJ)
system.mem_ctrl.rank0.actPowerDownEnergy            0                       # Energy for active power-down per rank (pJ)
system.mem_ctrl.rank0.prePowerDownEnergy            0                       # Energy for precharge power-down per rank (pJ)
system.mem_ctrl.rank0.selfRefreshEnergy             0                       # Energy for self refresh per rank (pJ)
system.mem_ctrl.rank0.totalEnergy         51488835900                       # Total energy per rank (pJ)
system.mem_ctrl.rank0.averagePower         601.252847                       # Core power per rank (mW)
system.mem_ctrl.rank0.totalIdleTime                 0                       # Total Idle time Per DRAM Rank
system.mem_ctrl.rank0.memoryStateTime::IDLE  17593668000                       # Time in different power states
system.mem_ctrl.rank0.memoryStateTime::REF   2859480000                       # Time in different power states
system.mem_ctrl.rank0.memoryStateTime::SREF            0                       # Time in different power states
system.mem_ctrl.rank0.memoryStateTime::PRE_PDN            0                       # Time in different power states
system.mem_ctrl.rank0.memoryStateTime::ACT  65182764000                       # Time in different power states
system.mem_ctrl.rank0.memoryStateTime::ACT_PDN            0                       # Time in different power states
system.mem_ctrl.power_state.pwrStateResidencyTicks::UNDEFINED  85635912000                       # Cumulative time (in ticks) in various power states
system.cache.blocked_cycles::no_mshrs               0                       # number of cycles access was blocked
system.cache.blocked_cycles::no_targets             0                       # number of cycles access was blocked
system.cache.blocked::no_mshrs                      0                       # number of cycles access was blocked
system.cache.blocked::no_targets                    0                       # number of cycles access was blocked
system.cache.avg_blocked_cycles::no_mshrs          nan                       # average number of cycles each access was blocked
system.cache.avg_blocked_cycles::no_targets          nan                       # average number of cycles each access was blocked
system.cache.replacements                           0                       # number of replacements
system.cache.power_state.pwrStateResidencyTicks::UNDEFINED  85635912000                       # Cumulative time (in ticks) in various power states
system.cache.tags.tagsinuse                         0                       # Cycle average of tags in use
system.cache.tags.total_refs                        0                       # Total number of references to valid blocks.
system.cache.tags.sampled_refs                      0                       # Sample count of references to valid blocks.
system.cache.tags.avg_refs                        nan                       # Average number of references to valid blocks.
system.cache.tags.warmup_cycle                      0                       # Cycle when the warmup percentage was hit.
system.cache.tags.tag_accesses                      0                       # Number of tag accesses
system.cache.tags.data_accesses                     0                       # Number of data accesses
system.cache.tags.power_state.pwrStateResidencyTicks::UNDEFINED  85635912000                       # Cumulative time (in ticks) in various power states
system.clk_domain.clock                          1000                       # Clock period in ticks
system.clk_domain.voltage_domain.voltage            1                       # Voltage in Volts
system.cachebus.snoops                              0                       # Total snoops (count)
system.cachebus.snoopTraffic                        0                       # Total snoop traffic (bytes)
system.cachebus.snoop_fanout::samples               0                       # Request fanout histogram
system.cachebus.snoop_fanout::mean                nan                       # Request fanout histogram
system.cachebus.snoop_fanout::stdev               nan                       # Request fanout histogram
system.cachebus.snoop_fanout::underflows            0                       # Request fanout histogram
system.cachebus.snoop_fanout::0                     0                       # Request fanout histogram
system.cachebus.snoop_fanout::overflows             0                       # Request fanout histogram
system.cachebus.snoop_fanout::min_value             0                       # Request fanout histogram
system.cachebus.snoop_fanout::max_value             0                       # Request fanout histogram
system.cachebus.snoop_fanout::total                 0                       # Request fanout histogram
system.cachebus.power_state.pwrStateResidencyTicks::UNDEFINED  85635912000                       # Cumulative time (in ticks) in various power states
system.cpu.dtb.walker.power_state.pwrStateResidencyTicks::UNDEFINED  85635912000                       # Cumulative time (in ticks) in various power states
system.cpu.interrupts.clk_domain.clock          16000                       # Clock period in ticks
system.cpu.itb.walker.power_state.pwrStateResidencyTicks::UNDEFINED  85635912000                       # Cumulative time (in ticks) in various power states
system.cpu.power_state.numTransitions               1                       # Number of power state transitions
system.cpu.power_state.pwrStateResidencyTicks::ON  85635912000                       # Cumulative time (in ticks) in various power states

---------- End Simulation Statistics   ----------
