
---------- Begin Simulation Statistics ----------
final_tick                                 4683698000                       # Number of ticks from beginning of simulation (restored from checkpoints and never reset)
host_inst_rate                                 247709                       # Simulator instruction rate (inst/s)
host_mem_usage                                1276408                       # Number of bytes of host memory used
host_op_rate                                   480053                       # Simulator op (including micro ops) rate (op/s)
host_seconds                                     4.04                       # Real time elapsed on the host
host_tick_rate                             1160005789                       # Simulator tick rate (ticks/s)
sim_freq                                 1000000000000                       # Frequency of simulated ticks
sim_insts                                     1000095                       # Number of instructions simulated
sim_ops                                       1938265                       # Number of ops (including micro ops) simulated
sim_seconds                                  0.004684                       # Number of seconds simulated
sim_ticks                                  4683698000                       # Number of ticks simulated
system.cpu.Branches                            238560                       # Number of branches fetched
system.cpu.committedInsts                     1000095                       # Number of instructions committed
system.cpu.committedOps                       1938265                       # Number of ops (including micro ops) committed
system.cpu.dtb.rdAccesses                      211666                       # TLB accesses on read requests
system.cpu.dtb.rdMisses                            19                       # TLB misses on read requests
system.cpu.dtb.wrAccesses                      156384                       # TLB accesses on write requests
system.cpu.dtb.wrMisses                           213                       # TLB misses on write requests
system.cpu.idle_fraction                            0                       # Percentage of idle cycles
system.cpu.itb.rdAccesses                           0                       # TLB accesses on read requests
system.cpu.itb.rdMisses                             0                       # TLB misses on read requests
system.cpu.itb.wrAccesses                     1367976                       # TLB accesses on write requests
system.cpu.itb.wrMisses                            48                       # TLB misses on write requests
system.cpu.not_idle_fraction                        1                       # Percentage of non-idle cycles
system.cpu.numCycles                          4683687                       # number of cpu cycles simulated
system.cpu.numWorkItemsCompleted                    0                       # number of work items this cpu completed
system.cpu.numWorkItemsStarted                      0                       # number of work items this cpu started
system.cpu.num_busy_cycles                    4683687                       # Number of busy cycles
system.cpu.num_cc_register_reads              1243715                       # number of times the CC registers were read
system.cpu.num_cc_register_writes              593734                       # number of times the CC registers were written
system.cpu.num_conditional_control_insts       185179                       # number of instructions that are conditional controls
system.cpu.num_fp_alu_accesses                  17413                       # Number of float alu accesses
system.cpu.num_fp_insts                         17413                       # number of float instructions
system.cpu.num_fp_register_reads                26619                       # number of times the floating registers were read
system.cpu.num_fp_register_writes               14821                       # number of times the floating registers were written
system.cpu.num_func_calls                       21747                       # number of times a function call or return occured
system.cpu.num_idle_cycles                          0                       # Number of idle cycles
system.cpu.num_int_alu_accesses               1919823                       # Number of integer alu accesses
system.cpu.num_int_insts                      1919823                       # number of integer instructions
system.cpu.num_int_register_reads             3784293                       # number of times the integer registers were read
system.cpu.num_int_register_writes            1557537                       # number of times the integer registers were written
system.cpu.num_load_insts                      211563                       # Number of load instructions
system.cpu.num_mem_refs                        367947                       # number of memory refs
system.cpu.num_store_insts                     156384                       # Number of store instructions
system.cpu.num_vec_alu_accesses                     0                       # Number of vector alu accesses
system.cpu.num_vec_insts                            0                       # number of vector instructions
system.cpu.num_vec_register_reads                   0                       # number of times the vector registers were read
system.cpu.num_vec_register_writes                  0                       # number of times the vector registers were written
system.cpu.op_class::No_OpClass                  7173      0.37%      0.37% # Class of executed instruction
system.cpu.op_class::IntAlu                   1527385     78.80%     79.17% # Class of executed instruction
system.cpu.op_class::IntMult                    10924      0.56%     79.73% # Class of executed instruction
system.cpu.op_class::IntDiv                     11235      0.58%     80.31% # Class of executed instruction
system.cpu.op_class::FloatAdd                    1079      0.06%     80.37% # Class of executed instruction
system.cpu.op_class::FloatCmp                       0      0.00%     80.37% # Class of executed instruction
system.cpu.op_class::FloatCvt                       0      0.00%     80.37% # Class of executed instruction
system.cpu.op_class::FloatMult                      0      0.00%     80.37% # Class of executed instruction
system.cpu.op_class::FloatMultAcc                   0      0.00%     80.37% # Class of executed instruction
system.cpu.op_class::FloatDiv                       0      0.00%     80.37% # Class of executed instruction
system.cpu.op_class::FloatMisc                      0      0.00%     80.37% # Class of executed instruction
system.cpu.op_class::FloatSqrt                      0      0.00%     80.37% # Class of executed instruction
system.cpu.op_class::SimdAdd                        0      0.00%     80.37% # Class of executed instruction
system.cpu.op_class::SimdAddAcc                     0      0.00%     80.37% # Class of executed instruction
system.cpu.op_class::SimdAlu                      140      0.01%     80.37% # Class of executed instruction
system.cpu.op_class::SimdCmp                       14      0.00%     80.37% # Class of executed instruction
system.cpu.op_class::SimdCvt                     2480      0.13%     80.50% # Class of executed instruction
system.cpu.op_class::SimdMisc                    9993      0.52%     81.02% # Class of executed instruction
system.cpu.op_class::SimdMult                       0      0.00%     81.02% # Class of executed instruction
system.cpu.op_class::SimdMultAcc                    0      0.00%     81.02% # Class of executed instruction
system.cpu.op_class::SimdShift                      0      0.00%     81.02% # Class of executed instruction
system.cpu.op_class::SimdShiftAcc                   0      0.00%     81.02% # Class of executed instruction
system.cpu.op_class::SimdDiv                        0      0.00%     81.02% # Class of executed instruction
system.cpu.op_class::SimdSqrt                       0      0.00%     81.02% # Class of executed instruction
system.cpu.op_class::SimdFloatAdd                   0      0.00%     81.02% # Class of executed instruction
system.cpu.op_class::SimdFloatAlu                   0      0.00%     81.02% # Class of executed instruction
system.cpu.op_class::SimdFloatCmp                   0      0.00%     81.02% # Class of executed instruction
system.cpu.op_class::SimdFloatCvt                   0      0.00%     81.02% # Class of executed instruction
system.cpu.op_class::SimdFloatDiv                   0      0.00%     81.02% # Class of executed instruction
system.cpu.op_class::SimdFloatMisc                  0      0.00%     81.02% # Class of executed instruction
system.cpu.op_class::SimdFloatMult                  0      0.00%     81.02% # Class of executed instruction
system.cpu.op_class::SimdFloatMultAcc               0      0.00%     81.02% # Class of executed instruction
system.cpu.op_class::SimdFloatSqrt                  0      0.00%     81.02% # Class of executed instruction
system.cpu.op_class::SimdReduceAdd                  0      0.00%     81.02% # Class of executed instruction
system.cpu.op_class::SimdReduceAlu                  0      0.00%     81.02% # Class of executed instruction
system.cpu.op_class::SimdReduceCmp                  0      0.00%     81.02% # Class of executed instruction
system.cpu.op_class::SimdFloatReduceAdd             0      0.00%     81.02% # Class of executed instruction
system.cpu.op_class::SimdFloatReduceCmp             0      0.00%     81.02% # Class of executed instruction
system.cpu.op_class::SimdAes                        0      0.00%     81.02% # Class of executed instruction
system.cpu.op_class::SimdAesMix                     0      0.00%     81.02% # Class of executed instruction
system.cpu.op_class::SimdSha1Hash                   0      0.00%     81.02% # Class of executed instruction
system.cpu.op_class::SimdSha1Hash2                  0      0.00%     81.02% # Class of executed instruction
system.cpu.op_class::SimdSha256Hash                 0      0.00%     81.02% # Class of executed instruction
system.cpu.op_class::SimdSha256Hash2                0      0.00%     81.02% # Class of executed instruction
system.cpu.op_class::SimdShaSigma2                  0      0.00%     81.02% # Class of executed instruction
system.cpu.op_class::SimdShaSigma3                  0      0.00%     81.02% # Class of executed instruction
system.cpu.op_class::SimdPredAlu                    0      0.00%     81.02% # Class of executed instruction
system.cpu.op_class::MemRead                   209127     10.79%     91.81% # Class of executed instruction
system.cpu.op_class::MemWrite                  156232      8.06%     99.87% # Class of executed instruction
system.cpu.op_class::FloatMemRead                2436      0.13%     99.99% # Class of executed instruction
system.cpu.op_class::FloatMemWrite                152      0.01%    100.00% # Class of executed instruction
system.cpu.op_class::IprAccess                      0      0.00%    100.00% # Class of executed instruction
system.cpu.op_class::InstPrefetch                   0      0.00%    100.00% # Class of executed instruction
system.cpu.op_class::total                    1938370                       # Class of executed instruction
system.cpu.workload.numSyscalls                    31                       # Number of system calls
system.dynamic_cache.flushTicks                     0                       # Ticks taken to flush
system.dynamic_cache.numFlushes                     0                       # Number of Flushes Taken
system.cache_small.blocked_cycles::no_mshrs            0                       # number of cycles access was blocked
system.cache_small.blocked_cycles::no_targets            0                       # number of cycles access was blocked
system.cache_small.blocked::no_mshrs                0                       # number of cycles access was blocked
system.cache_small.blocked::no_targets              0                       # number of cycles access was blocked
system.cache_small.avg_blocked_cycles::no_mshrs          nan                       # average number of cycles each access was blocked
system.cache_small.avg_blocked_cycles::no_targets          nan                       # average number of cycles each access was blocked
system.cache_small.replacements                     0                       # number of replacements
system.cache_small.power_state.pwrStateResidencyTicks::UNDEFINED   4683698000                       # Cumulative time (in ticks) in various power states
system.cache_small.tags.tagsinuse                   0                       # Cycle average of tags in use
system.cache_small.tags.total_refs                  0                       # Total number of references to valid blocks.
system.cache_small.tags.sampled_refs                0                       # Sample count of references to valid blocks.
system.cache_small.tags.avg_refs                  nan                       # Average number of references to valid blocks.
system.cache_small.tags.warmup_cycle                0                       # Cycle when the warmup percentage was hit.
system.cache_small.tags.tag_accesses                0                       # Number of tag accesses
system.cache_small.tags.data_accesses               0                       # Number of data accesses
system.cache_small.tags.power_state.pwrStateResidencyTicks::UNDEFINED   4683698000                       # Cumulative time (in ticks) in various power states
system.icache.demand_hits::.cpu.inst          1338846                       # number of demand (read+write) hits
system.icache.demand_hits::total              1338846                       # number of demand (read+write) hits
system.icache.overall_hits::.cpu.inst         1338846                       # number of overall hits
system.icache.overall_hits::total             1338846                       # number of overall hits
system.icache.demand_misses::.cpu.inst          29130                       # number of demand (read+write) misses
system.icache.demand_misses::total              29130                       # number of demand (read+write) misses
system.icache.overall_misses::.cpu.inst         29130                       # number of overall misses
system.icache.overall_misses::total             29130                       # number of overall misses
system.icache.demand_miss_latency::.cpu.inst    827096000                       # number of demand (read+write) miss cycles
system.icache.demand_miss_latency::total    827096000                       # number of demand (read+write) miss cycles
system.icache.overall_miss_latency::.cpu.inst    827096000                       # number of overall miss cycles
system.icache.overall_miss_latency::total    827096000                       # number of overall miss cycles
system.icache.demand_accesses::.cpu.inst      1367976                       # number of demand (read+write) accesses
system.icache.demand_accesses::total          1367976                       # number of demand (read+write) accesses
system.icache.overall_accesses::.cpu.inst      1367976                       # number of overall (read+write) accesses
system.icache.overall_accesses::total         1367976                       # number of overall (read+write) accesses
system.icache.demand_miss_rate::.cpu.inst     0.021294                       # miss rate for demand accesses
system.icache.demand_miss_rate::total        0.021294                       # miss rate for demand accesses
system.icache.overall_miss_rate::.cpu.inst     0.021294                       # miss rate for overall accesses
system.icache.overall_miss_rate::total       0.021294                       # miss rate for overall accesses
system.icache.demand_avg_miss_latency::.cpu.inst 28393.271541                       # average overall miss latency
system.icache.demand_avg_miss_latency::total 28393.271541                       # average overall miss latency
system.icache.overall_avg_miss_latency::.cpu.inst 28393.271541                       # average overall miss latency
system.icache.overall_avg_miss_latency::total 28393.271541                       # average overall miss latency
system.icache.blocked_cycles::no_mshrs              0                       # number of cycles access was blocked
system.icache.blocked_cycles::no_targets            0                       # number of cycles access was blocked
system.icache.blocked::no_mshrs                     0                       # number of cycles access was blocked
system.icache.blocked::no_targets                   0                       # number of cycles access was blocked
system.icache.avg_blocked_cycles::no_mshrs          nan                       # average number of cycles each access was blocked
system.icache.avg_blocked_cycles::no_targets          nan                       # average number of cycles each access was blocked
system.icache.demand_mshr_misses::.cpu.inst        29130                       # number of demand (read+write) MSHR misses
system.icache.demand_mshr_misses::total         29130                       # number of demand (read+write) MSHR misses
system.icache.overall_mshr_misses::.cpu.inst        29130                       # number of overall MSHR misses
system.icache.overall_mshr_misses::total        29130                       # number of overall MSHR misses
system.icache.demand_mshr_miss_latency::.cpu.inst    768836000                       # number of demand (read+write) MSHR miss cycles
system.icache.demand_mshr_miss_latency::total    768836000                       # number of demand (read+write) MSHR miss cycles
system.icache.overall_mshr_miss_latency::.cpu.inst    768836000                       # number of overall MSHR miss cycles
system.icache.overall_mshr_miss_latency::total    768836000                       # number of overall MSHR miss cycles
system.icache.demand_mshr_miss_rate::.cpu.inst     0.021294                       # mshr miss rate for demand accesses
system.icache.demand_mshr_miss_rate::total     0.021294                       # mshr miss rate for demand accesses
system.icache.overall_mshr_miss_rate::.cpu.inst     0.021294                       # mshr miss rate for overall accesses
system.icache.overall_mshr_miss_rate::total     0.021294                       # mshr miss rate for overall accesses
system.icache.demand_avg_mshr_miss_latency::.cpu.inst 26393.271541                       # average overall mshr miss latency
system.icache.demand_avg_mshr_miss_latency::total 26393.271541                       # average overall mshr miss latency
system.icache.overall_avg_mshr_miss_latency::.cpu.inst 26393.271541                       # average overall mshr miss latency
system.icache.overall_avg_mshr_miss_latency::total 26393.271541                       # average overall mshr miss latency
system.icache.replacements                      28913                       # number of replacements
system.icache.ReadReq_hits::.cpu.inst         1338846                       # number of ReadReq hits
system.icache.ReadReq_hits::total             1338846                       # number of ReadReq hits
system.icache.ReadReq_misses::.cpu.inst         29130                       # number of ReadReq misses
system.icache.ReadReq_misses::total             29130                       # number of ReadReq misses
system.icache.ReadReq_miss_latency::.cpu.inst    827096000                       # number of ReadReq miss cycles
system.icache.ReadReq_miss_latency::total    827096000                       # number of ReadReq miss cycles
system.icache.ReadReq_accesses::.cpu.inst      1367976                       # number of ReadReq accesses(hits+misses)
system.icache.ReadReq_accesses::total         1367976                       # number of ReadReq accesses(hits+misses)
system.icache.ReadReq_miss_rate::.cpu.inst     0.021294                       # miss rate for ReadReq accesses
system.icache.ReadReq_miss_rate::total       0.021294                       # miss rate for ReadReq accesses
system.icache.ReadReq_avg_miss_latency::.cpu.inst 28393.271541                       # average ReadReq miss latency
system.icache.ReadReq_avg_miss_latency::total 28393.271541                       # average ReadReq miss latency
system.icache.ReadReq_mshr_misses::.cpu.inst        29130                       # number of ReadReq MSHR misses
system.icache.ReadReq_mshr_misses::total        29130                       # number of ReadReq MSHR misses
system.icache.ReadReq_mshr_miss_latency::.cpu.inst    768836000                       # number of ReadReq MSHR miss cycles
system.icache.ReadReq_mshr_miss_latency::total    768836000                       # number of ReadReq MSHR miss cycles
system.icache.ReadReq_mshr_miss_rate::.cpu.inst     0.021294                       # mshr miss rate for ReadReq accesses
system.icache.ReadReq_mshr_miss_rate::total     0.021294                       # mshr miss rate for ReadReq accesses
system.icache.ReadReq_avg_mshr_miss_latency::.cpu.inst 26393.271541                       # average ReadReq mshr miss latency
system.icache.ReadReq_avg_mshr_miss_latency::total 26393.271541                       # average ReadReq mshr miss latency
system.icache.power_state.pwrStateResidencyTicks::UNDEFINED   4683698000                       # Cumulative time (in ticks) in various power states
system.icache.tags.tagsinuse               215.552407                       # Cycle average of tags in use
system.icache.tags.total_refs                  663047                       # Total number of references to valid blocks.
system.icache.tags.sampled_refs                 28913                       # Sample count of references to valid blocks.
system.icache.tags.avg_refs                 22.932487                       # Average number of references to valid blocks.
system.icache.tags.warmup_cycle                 80000                       # Cycle when the warmup percentage was hit.
system.icache.tags.occ_blocks::.cpu.inst   215.552407                       # Average occupied blocks per requestor
system.icache.tags.occ_percent::.cpu.inst     0.842002                       # Average percentage of cache occupancy
system.icache.tags.occ_percent::total        0.842002                       # Average percentage of cache occupancy
system.icache.tags.occ_task_id_blocks::1024          217                       # Occupied blocks per task id
system.icache.tags.age_task_id_blocks_1024::0           18                       # Occupied blocks per task id
system.icache.tags.age_task_id_blocks_1024::1            1                       # Occupied blocks per task id
system.icache.tags.age_task_id_blocks_1024::3          198                       # Occupied blocks per task id
system.icache.tags.occ_task_id_percent::1024     0.847656                       # Percentage of cache occupancy per task id
system.icache.tags.tag_accesses               1397106                       # Number of tag accesses
system.icache.tags.data_accesses              1397106                       # Number of data accesses
system.icache.tags.power_state.pwrStateResidencyTicks::UNDEFINED   4683698000                       # Cumulative time (in ticks) in various power states
system.membus.trans_dist::ReadReq               10692                       # Transaction distribution
system.membus.trans_dist::ReadResp              10692                       # Transaction distribution
system.membus.trans_dist::WritebackDirty         3891                       # Transaction distribution
system.membus.pkt_count_system.dynamic_cache.mem_side::system.mem_ctrl.port        25275                       # Packet count per connected master and slave (bytes)
system.membus.pkt_count_system.dynamic_cache.mem_side::total        25275                       # Packet count per connected master and slave (bytes)
system.membus.pkt_count::total                  25275                       # Packet count per connected master and slave (bytes)
system.membus.pkt_size_system.dynamic_cache.mem_side::system.mem_ctrl.port       933312                       # Cumulative packet size per connected master and slave (bytes)
system.membus.pkt_size_system.dynamic_cache.mem_side::total       933312                       # Cumulative packet size per connected master and slave (bytes)
system.membus.pkt_size::total                  933312                       # Cumulative packet size per connected master and slave (bytes)
system.membus.reqLayer2.occupancy            30147000                       # Layer occupancy (ticks)
system.membus.reqLayer2.utilization               0.6                       # Layer utilization (%)
system.membus.respLayer0.occupancy           57719250                       # Layer occupancy (ticks)
system.membus.respLayer0.utilization              1.2                       # Layer utilization (%)
system.membus.power_state.pwrStateResidencyTicks::UNDEFINED   4683698000                       # Cumulative time (in ticks) in various power states
system.mem_ctrl.bytes_read::.cpu.inst          405184                       # Number of bytes read from this memory
system.mem_ctrl.bytes_read::.cpu.data          279104                       # Number of bytes read from this memory
system.mem_ctrl.bytes_read::total              684288                       # Number of bytes read from this memory
system.mem_ctrl.bytes_inst_read::.cpu.inst       405184                       # Number of instructions bytes read from this memory
system.mem_ctrl.bytes_inst_read::total         405184                       # Number of instructions bytes read from this memory
system.mem_ctrl.bytes_written::.writebacks       249024                       # Number of bytes written to this memory
system.mem_ctrl.bytes_written::total           249024                       # Number of bytes written to this memory
system.mem_ctrl.num_reads::.cpu.inst             6331                       # Number of read requests responded to by this memory
system.mem_ctrl.num_reads::.cpu.data             4361                       # Number of read requests responded to by this memory
system.mem_ctrl.num_reads::total                10692                       # Number of read requests responded to by this memory
system.mem_ctrl.num_writes::.writebacks          3891                       # Number of write requests responded to by this memory
system.mem_ctrl.num_writes::total                3891                       # Number of write requests responded to by this memory
system.mem_ctrl.bw_read::.cpu.inst           86509421                       # Total read bandwidth from this memory (bytes/s)
system.mem_ctrl.bw_read::.cpu.data           59590520                       # Total read bandwidth from this memory (bytes/s)
system.mem_ctrl.bw_read::total              146099941                       # Total read bandwidth from this memory (bytes/s)
system.mem_ctrl.bw_inst_read::.cpu.inst      86509421                       # Instruction read bandwidth from this memory (bytes/s)
system.mem_ctrl.bw_inst_read::total          86509421                       # Instruction read bandwidth from this memory (bytes/s)
system.mem_ctrl.bw_write::.writebacks        53168244                       # Write bandwidth from this memory (bytes/s)
system.mem_ctrl.bw_write::total              53168244                       # Write bandwidth from this memory (bytes/s)
system.mem_ctrl.bw_total::.writebacks        53168244                       # Total bandwidth to/from this memory (bytes/s)
system.mem_ctrl.bw_total::.cpu.inst          86509421                       # Total bandwidth to/from this memory (bytes/s)
system.mem_ctrl.bw_total::.cpu.data          59590520                       # Total bandwidth to/from this memory (bytes/s)
system.mem_ctrl.bw_total::total             199268185                       # Total bandwidth to/from this memory (bytes/s)
system.mem_ctrl.avgPriority_.writebacks::samples      3781.00                       # Average QoS priority value for accepted requests
system.mem_ctrl.avgPriority_.cpu.inst::samples      6331.00                       # Average QoS priority value for accepted requests
system.mem_ctrl.avgPriority_.cpu.data::samples      4306.00                       # Average QoS priority value for accepted requests
system.mem_ctrl.priorityMinLatency       0.000000018750                       # per QoS priority minimum request to response latency (s)
system.mem_ctrl.priorityMaxLatency       0.000497081750                       # per QoS priority maximum request to response latency (s)
system.mem_ctrl.numReadWriteTurnArounds           221                       # Number of turnarounds from READ to WRITE
system.mem_ctrl.numWriteReadTurnArounds           221                       # Number of turnarounds from WRITE to READ
system.mem_ctrl.numStayReadState                26196                       # Number of times bus staying in READ state
system.mem_ctrl.numStayWriteState                3546                       # Number of times bus staying in WRITE state
system.mem_ctrl.readReqs                        10692                       # Number of read requests accepted
system.mem_ctrl.writeReqs                        3891                       # Number of write requests accepted
system.mem_ctrl.readBursts                      10692                       # Number of DRAM read bursts, including those serviced by the write queue
system.mem_ctrl.writeBursts                      3891                       # Number of DRAM write bursts, including those merged in the write queue
system.mem_ctrl.servicedByWrQ                      55                       # Number of DRAM read bursts serviced by the write queue
system.mem_ctrl.mergedWrBursts                    110                       # Number of DRAM write bursts merged with an existing one
system.mem_ctrl.neitherReadNorWriteReqs             0                       # Number of requests that are neither read nor write
system.mem_ctrl.perBankRdBursts::0               3063                       # Per bank write bursts
system.mem_ctrl.perBankRdBursts::1                208                       # Per bank write bursts
system.mem_ctrl.perBankRdBursts::2                201                       # Per bank write bursts
system.mem_ctrl.perBankRdBursts::3                425                       # Per bank write bursts
system.mem_ctrl.perBankRdBursts::4               2530                       # Per bank write bursts
system.mem_ctrl.perBankRdBursts::5                242                       # Per bank write bursts
system.mem_ctrl.perBankRdBursts::6                215                       # Per bank write bursts
system.mem_ctrl.perBankRdBursts::7                300                       # Per bank write bursts
system.mem_ctrl.perBankRdBursts::8                868                       # Per bank write bursts
system.mem_ctrl.perBankRdBursts::9                514                       # Per bank write bursts
system.mem_ctrl.perBankRdBursts::10               394                       # Per bank write bursts
system.mem_ctrl.perBankRdBursts::11               346                       # Per bank write bursts
system.mem_ctrl.perBankRdBursts::12               248                       # Per bank write bursts
system.mem_ctrl.perBankRdBursts::13               398                       # Per bank write bursts
system.mem_ctrl.perBankRdBursts::14               500                       # Per bank write bursts
system.mem_ctrl.perBankRdBursts::15               185                       # Per bank write bursts
system.mem_ctrl.perBankWrBursts::0                187                       # Per bank write bursts
system.mem_ctrl.perBankWrBursts::1                200                       # Per bank write bursts
system.mem_ctrl.perBankWrBursts::2                175                       # Per bank write bursts
system.mem_ctrl.perBankWrBursts::3                177                       # Per bank write bursts
system.mem_ctrl.perBankWrBursts::4                234                       # Per bank write bursts
system.mem_ctrl.perBankWrBursts::5                181                       # Per bank write bursts
system.mem_ctrl.perBankWrBursts::6                225                       # Per bank write bursts
system.mem_ctrl.perBankWrBursts::7                278                       # Per bank write bursts
system.mem_ctrl.perBankWrBursts::8                333                       # Per bank write bursts
system.mem_ctrl.perBankWrBursts::9                210                       # Per bank write bursts
system.mem_ctrl.perBankWrBursts::10               482                       # Per bank write bursts
system.mem_ctrl.perBankWrBursts::11               238                       # Per bank write bursts
system.mem_ctrl.perBankWrBursts::12               148                       # Per bank write bursts
system.mem_ctrl.perBankWrBursts::13               261                       # Per bank write bursts
system.mem_ctrl.perBankWrBursts::14               268                       # Per bank write bursts
system.mem_ctrl.perBankWrBursts::15               166                       # Per bank write bursts
system.mem_ctrl.avgRdQLen                        1.00                       # Average read queue length when enqueuing
system.mem_ctrl.avgWrQLen                       24.79                       # Average write queue length when enqueuing
system.mem_ctrl.totQLat                     135347000                       # Total ticks spent queuing
system.mem_ctrl.totBusLat                    53185000                       # Total ticks spent in databus transfers
system.mem_ctrl.totMemAccLat                334790750                       # Total ticks spent from burst creation until serviced by the DRAM
system.mem_ctrl.avgQLat                      12724.17                       # Average queueing delay per DRAM burst
system.mem_ctrl.avgBusLat                     5000.00                       # Average bus latency per DRAM burst
system.mem_ctrl.avgMemAccLat                 31474.17                       # Average memory access latency per DRAM burst
system.mem_ctrl.numRdRetry                          0                       # Number of times read queue was full causing retry
system.mem_ctrl.numWrRetry                          0                       # Number of times write queue was full causing retry
system.mem_ctrl.readRowHits                      5373                       # Number of row buffer hits during reads
system.mem_ctrl.writeRowHits                     2358                       # Number of row buffer hits during writes
system.mem_ctrl.readRowHitRate                  50.51                       # Row buffer hit rate for reads
system.mem_ctrl.writeRowHitRate                 62.36                       # Row buffer hit rate for writes
system.mem_ctrl.readPktSize::0                      0                       # Read request sizes (log2)
system.mem_ctrl.readPktSize::1                      0                       # Read request sizes (log2)
system.mem_ctrl.readPktSize::2                      0                       # Read request sizes (log2)
system.mem_ctrl.readPktSize::3                      0                       # Read request sizes (log2)
system.mem_ctrl.readPktSize::4                      0                       # Read request sizes (log2)
system.mem_ctrl.readPktSize::5                      0                       # Read request sizes (log2)
system.mem_ctrl.readPktSize::6                  10692                       # Read request sizes (log2)
system.mem_ctrl.writePktSize::0                     0                       # Write request sizes (log2)
system.mem_ctrl.writePktSize::1                     0                       # Write request sizes (log2)
system.mem_ctrl.writePktSize::2                     0                       # Write request sizes (log2)
system.mem_ctrl.writePktSize::3                     0                       # Write request sizes (log2)
system.mem_ctrl.writePktSize::4                     0                       # Write request sizes (log2)
system.mem_ctrl.writePktSize::5                     0                       # Write request sizes (log2)
system.mem_ctrl.writePktSize::6                  3891                       # Write request sizes (log2)
system.mem_ctrl.rdQLenPdf::0                    10637                       # What read queue length does an incoming req see
system.mem_ctrl.rdQLenPdf::1                        0                       # What read queue length does an incoming req see
system.mem_ctrl.rdQLenPdf::2                        0                       # What read queue length does an incoming req see
system.mem_ctrl.rdQLenPdf::3                        0                       # What read queue length does an incoming req see
system.mem_ctrl.rdQLenPdf::4                        0                       # What read queue length does an incoming req see
system.mem_ctrl.rdQLenPdf::5                        0                       # What read queue length does an incoming req see
system.mem_ctrl.rdQLenPdf::6                        0                       # What read queue length does an incoming req see
system.mem_ctrl.rdQLenPdf::7                        0                       # What read queue length does an incoming req see
system.mem_ctrl.rdQLenPdf::8                        0                       # What read queue length does an incoming req see
system.mem_ctrl.rdQLenPdf::9                        0                       # What read queue length does an incoming req see
system.mem_ctrl.rdQLenPdf::10                       0                       # What read queue length does an incoming req see
system.mem_ctrl.rdQLenPdf::11                       0                       # What read queue length does an incoming req see
system.mem_ctrl.rdQLenPdf::12                       0                       # What read queue length does an incoming req see
system.mem_ctrl.rdQLenPdf::13                       0                       # What read queue length does an incoming req see
system.mem_ctrl.rdQLenPdf::14                       0                       # What read queue length does an incoming req see
system.mem_ctrl.rdQLenPdf::15                       0                       # What read queue length does an incoming req see
system.mem_ctrl.rdQLenPdf::16                       0                       # What read queue length does an incoming req see
system.mem_ctrl.rdQLenPdf::17                       0                       # What read queue length does an incoming req see
system.mem_ctrl.rdQLenPdf::18                       0                       # What read queue length does an incoming req see
system.mem_ctrl.rdQLenPdf::19                       0                       # What read queue length does an incoming req see
system.mem_ctrl.rdQLenPdf::20                       0                       # What read queue length does an incoming req see
system.mem_ctrl.rdQLenPdf::21                       0                       # What read queue length does an incoming req see
system.mem_ctrl.rdQLenPdf::22                       0                       # What read queue length does an incoming req see
system.mem_ctrl.rdQLenPdf::23                       0                       # What read queue length does an incoming req see
system.mem_ctrl.rdQLenPdf::24                       0                       # What read queue length does an incoming req see
system.mem_ctrl.rdQLenPdf::25                       0                       # What read queue length does an incoming req see
system.mem_ctrl.rdQLenPdf::26                       0                       # What read queue length does an incoming req see
system.mem_ctrl.rdQLenPdf::27                       0                       # What read queue length does an incoming req see
system.mem_ctrl.rdQLenPdf::28                       0                       # What read queue length does an incoming req see
system.mem_ctrl.rdQLenPdf::29                       0                       # What read queue length does an incoming req see
system.mem_ctrl.rdQLenPdf::30                       0                       # What read queue length does an incoming req see
system.mem_ctrl.rdQLenPdf::31                       0                       # What read queue length does an incoming req see
system.mem_ctrl.wrQLenPdf::0                        1                       # What write queue length does an incoming req see
system.mem_ctrl.wrQLenPdf::1                        1                       # What write queue length does an incoming req see
system.mem_ctrl.wrQLenPdf::2                        1                       # What write queue length does an incoming req see
system.mem_ctrl.wrQLenPdf::3                        1                       # What write queue length does an incoming req see
system.mem_ctrl.wrQLenPdf::4                        1                       # What write queue length does an incoming req see
system.mem_ctrl.wrQLenPdf::5                        1                       # What write queue length does an incoming req see
system.mem_ctrl.wrQLenPdf::6                        1                       # What write queue length does an incoming req see
system.mem_ctrl.wrQLenPdf::7                        1                       # What write queue length does an incoming req see
system.mem_ctrl.wrQLenPdf::8                        1                       # What write queue length does an incoming req see
system.mem_ctrl.wrQLenPdf::9                        1                       # What write queue length does an incoming req see
system.mem_ctrl.wrQLenPdf::10                       1                       # What write queue length does an incoming req see
system.mem_ctrl.wrQLenPdf::11                       1                       # What write queue length does an incoming req see
system.mem_ctrl.wrQLenPdf::12                       1                       # What write queue length does an incoming req see
system.mem_ctrl.wrQLenPdf::13                       1                       # What write queue length does an incoming req see
system.mem_ctrl.wrQLenPdf::14                       1                       # What write queue length does an incoming req see
system.mem_ctrl.wrQLenPdf::15                     103                       # What write queue length does an incoming req see
system.mem_ctrl.wrQLenPdf::16                     107                       # What write queue length does an incoming req see
system.mem_ctrl.wrQLenPdf::17                     207                       # What write queue length does an incoming req see
system.mem_ctrl.wrQLenPdf::18                     220                       # What write queue length does an incoming req see
system.mem_ctrl.wrQLenPdf::19                     221                       # What write queue length does an incoming req see
system.mem_ctrl.wrQLenPdf::20                     222                       # What write queue length does an incoming req see
system.mem_ctrl.wrQLenPdf::21                     222                       # What write queue length does an incoming req see
system.mem_ctrl.wrQLenPdf::22                     221                       # What write queue length does an incoming req see
system.mem_ctrl.wrQLenPdf::23                     221                       # What write queue length does an incoming req see
system.mem_ctrl.wrQLenPdf::24                     226                       # What write queue length does an incoming req see
system.mem_ctrl.wrQLenPdf::25                     225                       # What write queue length does an incoming req see
system.mem_ctrl.wrQLenPdf::26                     225                       # What write queue length does an incoming req see
system.mem_ctrl.wrQLenPdf::27                     240                       # What write queue length does an incoming req see
system.mem_ctrl.wrQLenPdf::28                     221                       # What write queue length does an incoming req see
system.mem_ctrl.wrQLenPdf::29                     221                       # What write queue length does an incoming req see
system.mem_ctrl.wrQLenPdf::30                     221                       # What write queue length does an incoming req see
system.mem_ctrl.wrQLenPdf::31                     221                       # What write queue length does an incoming req see
system.mem_ctrl.wrQLenPdf::32                     221                       # What write queue length does an incoming req see
system.mem_ctrl.wrQLenPdf::33                       1                       # What write queue length does an incoming req see
system.mem_ctrl.wrQLenPdf::34                       0                       # What write queue length does an incoming req see
system.mem_ctrl.wrQLenPdf::35                       0                       # What write queue length does an incoming req see
system.mem_ctrl.wrQLenPdf::36                       0                       # What write queue length does an incoming req see
system.mem_ctrl.wrQLenPdf::37                       0                       # What write queue length does an incoming req see
system.mem_ctrl.wrQLenPdf::38                       0                       # What write queue length does an incoming req see
system.mem_ctrl.wrQLenPdf::39                       0                       # What write queue length does an incoming req see
system.mem_ctrl.wrQLenPdf::40                       0                       # What write queue length does an incoming req see
system.mem_ctrl.wrQLenPdf::41                       0                       # What write queue length does an incoming req see
system.mem_ctrl.wrQLenPdf::42                       0                       # What write queue length does an incoming req see
system.mem_ctrl.wrQLenPdf::43                       0                       # What write queue length does an incoming req see
system.mem_ctrl.wrQLenPdf::44                       0                       # What write queue length does an incoming req see
system.mem_ctrl.wrQLenPdf::45                       0                       # What write queue length does an incoming req see
system.mem_ctrl.wrQLenPdf::46                       0                       # What write queue length does an incoming req see
system.mem_ctrl.wrQLenPdf::47                       0                       # What write queue length does an incoming req see
system.mem_ctrl.wrQLenPdf::48                       0                       # What write queue length does an incoming req see
system.mem_ctrl.wrQLenPdf::49                       0                       # What write queue length does an incoming req see
system.mem_ctrl.wrQLenPdf::50                       0                       # What write queue length does an incoming req see
system.mem_ctrl.wrQLenPdf::51                       0                       # What write queue length does an incoming req see
system.mem_ctrl.wrQLenPdf::52                       0                       # What write queue length does an incoming req see
system.mem_ctrl.wrQLenPdf::53                       0                       # What write queue length does an incoming req see
system.mem_ctrl.wrQLenPdf::54                       0                       # What write queue length does an incoming req see
system.mem_ctrl.wrQLenPdf::55                       0                       # What write queue length does an incoming req see
system.mem_ctrl.wrQLenPdf::56                       0                       # What write queue length does an incoming req see
system.mem_ctrl.wrQLenPdf::57                       0                       # What write queue length does an incoming req see
system.mem_ctrl.wrQLenPdf::58                       0                       # What write queue length does an incoming req see
system.mem_ctrl.wrQLenPdf::59                       0                       # What write queue length does an incoming req see
system.mem_ctrl.wrQLenPdf::60                       0                       # What write queue length does an incoming req see
system.mem_ctrl.wrQLenPdf::61                       0                       # What write queue length does an incoming req see
system.mem_ctrl.wrQLenPdf::62                       0                       # What write queue length does an incoming req see
system.mem_ctrl.wrQLenPdf::63                       0                       # What write queue length does an incoming req see
system.mem_ctrl.bytesPerActivate::samples         6662                       # Bytes accessed per row activation
system.mem_ctrl.bytesPerActivate::mean     138.240769                       # Bytes accessed per row activation
system.mem_ctrl.bytesPerActivate::gmean    110.314750                       # Bytes accessed per row activation
system.mem_ctrl.bytesPerActivate::stdev    108.780604                       # Bytes accessed per row activation
system.mem_ctrl.bytesPerActivate::0-127          3422     51.37%     51.37% # Bytes accessed per row activation
system.mem_ctrl.bytesPerActivate::128-255         1869     28.05%     79.42% # Bytes accessed per row activation
system.mem_ctrl.bytesPerActivate::256-383         1171     17.58%     97.00% # Bytes accessed per row activation
system.mem_ctrl.bytesPerActivate::384-511          116      1.74%     98.74% # Bytes accessed per row activation
system.mem_ctrl.bytesPerActivate::512-639           43      0.65%     99.38% # Bytes accessed per row activation
system.mem_ctrl.bytesPerActivate::640-767           21      0.32%     99.70% # Bytes accessed per row activation
system.mem_ctrl.bytesPerActivate::768-895            7      0.11%     99.80% # Bytes accessed per row activation
system.mem_ctrl.bytesPerActivate::896-1023            4      0.06%     99.86% # Bytes accessed per row activation
system.mem_ctrl.bytesPerActivate::1024-1151            9      0.14%    100.00% # Bytes accessed per row activation
system.mem_ctrl.bytesPerActivate::total          6662                       # Bytes accessed per row activation
system.mem_ctrl.rdPerTurnAround::samples          221                       # Reads before turning the bus around for writes
system.mem_ctrl.rdPerTurnAround::mean       48.113122                       # Reads before turning the bus around for writes
system.mem_ctrl.rdPerTurnAround::gmean      42.353583                       # Reads before turning the bus around for writes
system.mem_ctrl.rdPerTurnAround::stdev      55.875111                       # Reads before turning the bus around for writes
system.mem_ctrl.rdPerTurnAround::0-31              36     16.29%     16.29% # Reads before turning the bus around for writes
system.mem_ctrl.rdPerTurnAround::32-63            169     76.47%     92.76% # Reads before turning the bus around for writes
system.mem_ctrl.rdPerTurnAround::64-95             10      4.52%     97.29% # Reads before turning the bus around for writes
system.mem_ctrl.rdPerTurnAround::96-127             2      0.90%     98.19% # Reads before turning the bus around for writes
system.mem_ctrl.rdPerTurnAround::160-191            3      1.36%     99.55% # Reads before turning the bus around for writes
system.mem_ctrl.rdPerTurnAround::800-831            1      0.45%    100.00% # Reads before turning the bus around for writes
system.mem_ctrl.rdPerTurnAround::total            221                       # Reads before turning the bus around for writes
system.mem_ctrl.wrPerTurnAround::samples          221                       # Writes before turning the bus around for reads
system.mem_ctrl.wrPerTurnAround::mean       17.027149                       # Writes before turning the bus around for reads
system.mem_ctrl.wrPerTurnAround::gmean      16.992473                       # Writes before turning the bus around for reads
system.mem_ctrl.wrPerTurnAround::stdev       1.095107                       # Writes before turning the bus around for reads
system.mem_ctrl.wrPerTurnAround::16               113     51.13%     51.13% # Writes before turning the bus around for reads
system.mem_ctrl.wrPerTurnAround::17                 4      1.81%     52.94% # Writes before turning the bus around for reads
system.mem_ctrl.wrPerTurnAround::18                90     40.72%     93.67% # Writes before turning the bus around for reads
system.mem_ctrl.wrPerTurnAround::19                13      5.88%     99.55% # Writes before turning the bus around for reads
system.mem_ctrl.wrPerTurnAround::20                 1      0.45%    100.00% # Writes before turning the bus around for reads
system.mem_ctrl.wrPerTurnAround::total            221                       # Writes before turning the bus around for reads
system.mem_ctrl.bytesReadDRAM                  680768                       # Total number of bytes read from DRAM
system.mem_ctrl.bytesReadWrQ                     3520                       # Total number of bytes read from write queue
system.mem_ctrl.bytesWritten                   240832                       # Total number of bytes written to DRAM
system.mem_ctrl.bytesReadSys                   684288                       # Total read bytes from the system interface side
system.mem_ctrl.bytesWrittenSys                249024                       # Total written bytes from the system interface side
system.mem_ctrl.avgRdBW                        145.35                       # Average DRAM read bandwidth in MiByte/s
system.mem_ctrl.avgWrBW                         51.42                       # Average achieved write bandwidth in MiByte/s
system.mem_ctrl.avgRdBWSys                     146.10                       # Average system read bandwidth in MiByte/s
system.mem_ctrl.avgWrBWSys                      53.17                       # Average system write bandwidth in MiByte/s
system.mem_ctrl.peakBW                       12800.00                       # Theoretical peak bandwidth in MiByte/s
system.mem_ctrl.busUtil                          1.54                       # Data bus utilization in percentage
system.mem_ctrl.busUtilRead                      1.14                       # Data bus utilization in percentage for reads
system.mem_ctrl.busUtilWrite                     0.40                       # Data bus utilization in percentage for writes
system.mem_ctrl.totGap                     4683232000                       # Total gap between requests
system.mem_ctrl.avgGap                      321143.25                       # Average gap between requests
system.mem_ctrl.masterReadBytes::.cpu.inst       405184                       # Per-master bytes read from memory
system.mem_ctrl.masterReadBytes::.cpu.data       275584                       # Per-master bytes read from memory
system.mem_ctrl.masterWriteBytes::.writebacks       240832                       # Per-master bytes write to memory
system.mem_ctrl.masterReadRate::.cpu.inst 86509420.547610029578                       # Per-master bytes read from memory rate (Bytes/sec)
system.mem_ctrl.masterReadRate::.cpu.data 58838977.235509209335                       # Per-master bytes read from memory rate (Bytes/sec)
system.mem_ctrl.masterWriteRate::.writebacks 51419199.102931059897                       # Per-master bytes write to memory rate (Bytes/sec)
system.mem_ctrl.masterReadAccesses::.cpu.inst         6331                       # Per-master read serviced memory accesses
system.mem_ctrl.masterReadAccesses::.cpu.data         4361                       # Per-master read serviced memory accesses
system.mem_ctrl.masterWriteAccesses::.writebacks         3891                       # Per-master write serviced memory accesses
system.mem_ctrl.masterReadTotalLat::.cpu.inst    189877750                       # Per-master read total memory access latency
system.mem_ctrl.masterReadTotalLat::.cpu.data    144913000                       # Per-master read total memory access latency
system.mem_ctrl.masterWriteTotalLat::.writebacks 110715938750                       # Per-master write total memory access latency
system.mem_ctrl.masterReadAvgLat::.cpu.inst     29991.75                       # Per-master read average memory access latency
system.mem_ctrl.masterReadAvgLat::.cpu.data     33229.31                       # Per-master read average memory access latency
system.mem_ctrl.masterWriteAvgLat::.writebacks  28454366.17                       # Per-master write average memory access latency
system.mem_ctrl.pageHitRate                     53.62                       # Row buffer hit rate, read and write combined
system.mem_ctrl.rank1.actEnergy              22162560                       # Energy for activate commands per rank (pJ)
system.mem_ctrl.rank1.preEnergy              11764500                       # Energy for precharge commands per rank (pJ)
system.mem_ctrl.rank1.readEnergy             24654420                       # Energy for read commands per rank (pJ)
system.mem_ctrl.rank1.writeEnergy            10993320                       # Energy for write commands per rank (pJ)
system.mem_ctrl.rank1.refreshEnergy      369398640.000000                       # Energy for refresh commands per rank (pJ)
system.mem_ctrl.rank1.actBackEnergy        1527030000                       # Energy for active background per rank (pJ)
system.mem_ctrl.rank1.preBackEnergy         512620320                       # Energy for precharge background per rank (pJ)
system.mem_ctrl.rank1.actPowerDownEnergy            0                       # Energy for active power-down per rank (pJ)
system.mem_ctrl.rank1.prePowerDownEnergy            0                       # Energy for precharge power-down per rank (pJ)
system.mem_ctrl.rank1.selfRefreshEnergy             0                       # Energy for self refresh per rank (pJ)
system.mem_ctrl.rank1.totalEnergy          2478623760                       # Total energy per rank (pJ)
system.mem_ctrl.rank1.averagePower         529.202301                       # Core power per rank (mW)
system.mem_ctrl.rank1.totalIdleTime                 0                       # Total Idle time Per DRAM Rank
system.mem_ctrl.rank1.memoryStateTime::IDLE   1317269750                       # Time in different power states
system.mem_ctrl.rank1.memoryStateTime::REF    156260000                       # Time in different power states
system.mem_ctrl.rank1.memoryStateTime::SREF            0                       # Time in different power states
system.mem_ctrl.rank1.memoryStateTime::PRE_PDN            0                       # Time in different power states
system.mem_ctrl.rank1.memoryStateTime::ACT   3210168250                       # Time in different power states
system.mem_ctrl.rank1.memoryStateTime::ACT_PDN            0                       # Time in different power states
system.mem_ctrl.rank0.actEnergy              25454100                       # Energy for activate commands per rank (pJ)
system.mem_ctrl.rank0.preEnergy              13517790                       # Energy for precharge commands per rank (pJ)
system.mem_ctrl.rank0.readEnergy             51293760                       # Energy for read commands per rank (pJ)
system.mem_ctrl.rank0.writeEnergy             8649540                       # Energy for write commands per rank (pJ)
system.mem_ctrl.rank0.refreshEnergy      369398640.000000                       # Energy for refresh commands per rank (pJ)
system.mem_ctrl.rank0.actBackEnergy        1851240300                       # Energy for active background per rank (pJ)
system.mem_ctrl.rank0.preBackEnergy         239601120                       # Energy for precharge background per rank (pJ)
system.mem_ctrl.rank0.actPowerDownEnergy            0                       # Energy for active power-down per rank (pJ)
system.mem_ctrl.rank0.prePowerDownEnergy            0                       # Energy for precharge power-down per rank (pJ)
system.mem_ctrl.rank0.selfRefreshEnergy             0                       # Energy for self refresh per rank (pJ)
system.mem_ctrl.rank0.totalEnergy          2559155250                       # Total energy per rank (pJ)
system.mem_ctrl.rank0.averagePower         546.396298                       # Core power per rank (mW)
system.mem_ctrl.rank0.totalIdleTime                 0                       # Total Idle time Per DRAM Rank
system.mem_ctrl.rank0.memoryStateTime::IDLE    605318000                       # Time in different power states
system.mem_ctrl.rank0.memoryStateTime::REF    156260000                       # Time in different power states
system.mem_ctrl.rank0.memoryStateTime::SREF            0                       # Time in different power states
system.mem_ctrl.rank0.memoryStateTime::PRE_PDN            0                       # Time in different power states
system.mem_ctrl.rank0.memoryStateTime::ACT   3922120000                       # Time in different power states
system.mem_ctrl.rank0.memoryStateTime::ACT_PDN            0                       # Time in different power states
system.mem_ctrl.power_state.pwrStateResidencyTicks::UNDEFINED   4683698000                       # Cumulative time (in ticks) in various power states
system.cache_medium.blocked_cycles::no_mshrs            0                       # number of cycles access was blocked
system.cache_medium.blocked_cycles::no_targets            0                       # number of cycles access was blocked
system.cache_medium.blocked::no_mshrs               0                       # number of cycles access was blocked
system.cache_medium.blocked::no_targets             0                       # number of cycles access was blocked
system.cache_medium.avg_blocked_cycles::no_mshrs          nan                       # average number of cycles each access was blocked
system.cache_medium.avg_blocked_cycles::no_targets          nan                       # average number of cycles each access was blocked
system.cache_medium.replacements                    0                       # number of replacements
system.cache_medium.power_state.pwrStateResidencyTicks::UNDEFINED   4683698000                       # Cumulative time (in ticks) in various power states
system.cache_medium.tags.tagsinuse                  0                       # Cycle average of tags in use
system.cache_medium.tags.total_refs                 0                       # Total number of references to valid blocks.
system.cache_medium.tags.sampled_refs               0                       # Sample count of references to valid blocks.
system.cache_medium.tags.avg_refs                 nan                       # Average number of references to valid blocks.
system.cache_medium.tags.warmup_cycle               0                       # Cycle when the warmup percentage was hit.
system.cache_medium.tags.tag_accesses               0                       # Number of tag accesses
system.cache_medium.tags.data_accesses              0                       # Number of data accesses
system.cache_medium.tags.power_state.pwrStateResidencyTicks::UNDEFINED   4683698000                       # Cumulative time (in ticks) in various power states
system.clk_domain.clock                          1000                       # Clock period in ticks
system.clk_domain.voltage_domain.voltage            1                       # Voltage in Volts
system.dcache.demand_hits::.cpu.data           361386                       # number of demand (read+write) hits
system.dcache.demand_hits::total               361386                       # number of demand (read+write) hits
system.dcache.overall_hits::.cpu.data          361386                       # number of overall hits
system.dcache.overall_hits::total              361386                       # number of overall hits
system.dcache.demand_misses::.cpu.data           6559                       # number of demand (read+write) misses
system.dcache.demand_misses::total               6559                       # number of demand (read+write) misses
system.dcache.overall_misses::.cpu.data          6559                       # number of overall misses
system.dcache.overall_misses::total              6559                       # number of overall misses
system.dcache.demand_miss_latency::.cpu.data    380074000                       # number of demand (read+write) miss cycles
system.dcache.demand_miss_latency::total    380074000                       # number of demand (read+write) miss cycles
system.dcache.overall_miss_latency::.cpu.data    380074000                       # number of overall miss cycles
system.dcache.overall_miss_latency::total    380074000                       # number of overall miss cycles
system.dcache.demand_accesses::.cpu.data       367945                       # number of demand (read+write) accesses
system.dcache.demand_accesses::total           367945                       # number of demand (read+write) accesses
system.dcache.overall_accesses::.cpu.data       367945                       # number of overall (read+write) accesses
system.dcache.overall_accesses::total          367945                       # number of overall (read+write) accesses
system.dcache.demand_miss_rate::.cpu.data     0.017826                       # miss rate for demand accesses
system.dcache.demand_miss_rate::total        0.017826                       # miss rate for demand accesses
system.dcache.overall_miss_rate::.cpu.data     0.017826                       # miss rate for overall accesses
system.dcache.overall_miss_rate::total       0.017826                       # miss rate for overall accesses
system.dcache.demand_avg_miss_latency::.cpu.data 57946.943132                       # average overall miss latency
system.dcache.demand_avg_miss_latency::total 57946.943132                       # average overall miss latency
system.dcache.overall_avg_miss_latency::.cpu.data 57946.943132                       # average overall miss latency
system.dcache.overall_avg_miss_latency::total 57946.943132                       # average overall miss latency
system.dcache.blocked_cycles::no_mshrs              0                       # number of cycles access was blocked
system.dcache.blocked_cycles::no_targets            0                       # number of cycles access was blocked
system.dcache.blocked::no_mshrs                     0                       # number of cycles access was blocked
system.dcache.blocked::no_targets                   0                       # number of cycles access was blocked
system.dcache.avg_blocked_cycles::no_mshrs          nan                       # average number of cycles each access was blocked
system.dcache.avg_blocked_cycles::no_targets          nan                       # average number of cycles each access was blocked
system.dcache.writebacks::.writebacks            5111                       # number of writebacks
system.dcache.writebacks::total                  5111                       # number of writebacks
system.dcache.demand_mshr_misses::.cpu.data         6559                       # number of demand (read+write) MSHR misses
system.dcache.demand_mshr_misses::total          6559                       # number of demand (read+write) MSHR misses
system.dcache.overall_mshr_misses::.cpu.data         6559                       # number of overall MSHR misses
system.dcache.overall_mshr_misses::total         6559                       # number of overall MSHR misses
system.dcache.demand_mshr_miss_latency::.cpu.data    366958000                       # number of demand (read+write) MSHR miss cycles
system.dcache.demand_mshr_miss_latency::total    366958000                       # number of demand (read+write) MSHR miss cycles
system.dcache.overall_mshr_miss_latency::.cpu.data    366958000                       # number of overall MSHR miss cycles
system.dcache.overall_mshr_miss_latency::total    366958000                       # number of overall MSHR miss cycles
system.dcache.demand_mshr_miss_rate::.cpu.data     0.017826                       # mshr miss rate for demand accesses
system.dcache.demand_mshr_miss_rate::total     0.017826                       # mshr miss rate for demand accesses
system.dcache.overall_mshr_miss_rate::.cpu.data     0.017826                       # mshr miss rate for overall accesses
system.dcache.overall_mshr_miss_rate::total     0.017826                       # mshr miss rate for overall accesses
system.dcache.demand_avg_mshr_miss_latency::.cpu.data 55947.248056                       # average overall mshr miss latency
system.dcache.demand_avg_mshr_miss_latency::total 55947.248056                       # average overall mshr miss latency
system.dcache.overall_avg_mshr_miss_latency::.cpu.data 55947.248056                       # average overall mshr miss latency
system.dcache.overall_avg_mshr_miss_latency::total 55947.248056                       # average overall mshr miss latency
system.dcache.replacements                       6302                       # number of replacements
system.dcache.ReadReq_hits::.cpu.data          209874                       # number of ReadReq hits
system.dcache.ReadReq_hits::total              209874                       # number of ReadReq hits
system.dcache.ReadReq_misses::.cpu.data          1791                       # number of ReadReq misses
system.dcache.ReadReq_misses::total              1791                       # number of ReadReq misses
system.dcache.ReadReq_miss_latency::.cpu.data     88097000                       # number of ReadReq miss cycles
system.dcache.ReadReq_miss_latency::total     88097000                       # number of ReadReq miss cycles
system.dcache.ReadReq_accesses::.cpu.data       211665                       # number of ReadReq accesses(hits+misses)
system.dcache.ReadReq_accesses::total          211665                       # number of ReadReq accesses(hits+misses)
system.dcache.ReadReq_miss_rate::.cpu.data     0.008461                       # miss rate for ReadReq accesses
system.dcache.ReadReq_miss_rate::total       0.008461                       # miss rate for ReadReq accesses
system.dcache.ReadReq_avg_miss_latency::.cpu.data 49188.721385                       # average ReadReq miss latency
system.dcache.ReadReq_avg_miss_latency::total 49188.721385                       # average ReadReq miss latency
system.dcache.ReadReq_mshr_misses::.cpu.data         1791                       # number of ReadReq MSHR misses
system.dcache.ReadReq_mshr_misses::total         1791                       # number of ReadReq MSHR misses
system.dcache.ReadReq_mshr_miss_latency::.cpu.data     84517000                       # number of ReadReq MSHR miss cycles
system.dcache.ReadReq_mshr_miss_latency::total     84517000                       # number of ReadReq MSHR miss cycles
system.dcache.ReadReq_mshr_miss_rate::.cpu.data     0.008461                       # mshr miss rate for ReadReq accesses
system.dcache.ReadReq_mshr_miss_rate::total     0.008461                       # mshr miss rate for ReadReq accesses
system.dcache.ReadReq_avg_mshr_miss_latency::.cpu.data 47189.838079                       # average ReadReq mshr miss latency
system.dcache.ReadReq_avg_mshr_miss_latency::total 47189.838079                       # average ReadReq mshr miss latency
system.dcache.WriteReq_hits::.cpu.data         151512                       # number of WriteReq hits
system.dcache.WriteReq_hits::total             151512                       # number of WriteReq hits
system.dcache.WriteReq_misses::.cpu.data         4768                       # number of WriteReq misses
system.dcache.WriteReq_misses::total             4768                       # number of WriteReq misses
system.dcache.WriteReq_miss_latency::.cpu.data    291977000                       # number of WriteReq miss cycles
system.dcache.WriteReq_miss_latency::total    291977000                       # number of WriteReq miss cycles
system.dcache.WriteReq_accesses::.cpu.data       156280                       # number of WriteReq accesses(hits+misses)
system.dcache.WriteReq_accesses::total         156280                       # number of WriteReq accesses(hits+misses)
system.dcache.WriteReq_miss_rate::.cpu.data     0.030509                       # miss rate for WriteReq accesses
system.dcache.WriteReq_miss_rate::total      0.030509                       # miss rate for WriteReq accesses
system.dcache.WriteReq_avg_miss_latency::.cpu.data 61236.786913                       # average WriteReq miss latency
system.dcache.WriteReq_avg_miss_latency::total 61236.786913                       # average WriteReq miss latency
system.dcache.WriteReq_mshr_misses::.cpu.data         4768                       # number of WriteReq MSHR misses
system.dcache.WriteReq_mshr_misses::total         4768                       # number of WriteReq MSHR misses
system.dcache.WriteReq_mshr_miss_latency::.cpu.data    282441000                       # number of WriteReq MSHR miss cycles
system.dcache.WriteReq_mshr_miss_latency::total    282441000                       # number of WriteReq MSHR miss cycles
system.dcache.WriteReq_mshr_miss_rate::.cpu.data     0.030509                       # mshr miss rate for WriteReq accesses
system.dcache.WriteReq_mshr_miss_rate::total     0.030509                       # mshr miss rate for WriteReq accesses
system.dcache.WriteReq_avg_mshr_miss_latency::.cpu.data 59236.786913                       # average WriteReq mshr miss latency
system.dcache.WriteReq_avg_mshr_miss_latency::total 59236.786913                       # average WriteReq mshr miss latency
system.dcache.power_state.pwrStateResidencyTicks::UNDEFINED   4683698000                       # Cumulative time (in ticks) in various power states
system.dcache.tags.tagsinuse               247.653408                       # Cycle average of tags in use
system.dcache.tags.total_refs                  356956                       # Total number of references to valid blocks.
system.dcache.tags.sampled_refs                  6302                       # Sample count of references to valid blocks.
system.dcache.tags.avg_refs                 56.641701                       # Average number of references to valid blocks.
system.dcache.tags.warmup_cycle                167000                       # Cycle when the warmup percentage was hit.
system.dcache.tags.occ_blocks::.cpu.data   247.653408                       # Average occupied blocks per requestor
system.dcache.tags.occ_percent::.cpu.data     0.967396                       # Average percentage of cache occupancy
system.dcache.tags.occ_percent::total        0.967396                       # Average percentage of cache occupancy
system.dcache.tags.occ_task_id_blocks::1024          256                       # Occupied blocks per task id
system.dcache.tags.age_task_id_blocks_1024::0           14                       # Occupied blocks per task id
system.dcache.tags.age_task_id_blocks_1024::1           66                       # Occupied blocks per task id
system.dcache.tags.age_task_id_blocks_1024::2          176                       # Occupied blocks per task id
system.dcache.tags.occ_task_id_percent::1024            1                       # Percentage of cache occupancy per task id
system.dcache.tags.tag_accesses                374503                       # Number of tag accesses
system.dcache.tags.data_accesses               374503                       # Number of data accesses
system.dcache.tags.power_state.pwrStateResidencyTicks::UNDEFINED   4683698000                       # Cumulative time (in ticks) in various power states
system.cache_large.blocked_cycles::no_mshrs            0                       # number of cycles access was blocked
system.cache_large.blocked_cycles::no_targets            0                       # number of cycles access was blocked
system.cache_large.blocked::no_mshrs                0                       # number of cycles access was blocked
system.cache_large.blocked::no_targets              0                       # number of cycles access was blocked
system.cache_large.avg_blocked_cycles::no_mshrs          nan                       # average number of cycles each access was blocked
system.cache_large.avg_blocked_cycles::no_targets          nan                       # average number of cycles each access was blocked
system.cache_large.replacements                     0                       # number of replacements
system.cache_large.power_state.pwrStateResidencyTicks::UNDEFINED   4683698000                       # Cumulative time (in ticks) in various power states
system.cache_large.tags.tagsinuse                   0                       # Cycle average of tags in use
system.cache_large.tags.total_refs                  0                       # Total number of references to valid blocks.
system.cache_large.tags.sampled_refs                0                       # Sample count of references to valid blocks.
system.cache_large.tags.avg_refs                  nan                       # Average number of references to valid blocks.
system.cache_large.tags.warmup_cycle                0                       # Cycle when the warmup percentage was hit.
system.cache_large.tags.tag_accesses                0                       # Number of tag accesses
system.cache_large.tags.data_accesses               0                       # Number of data accesses
system.cache_large.tags.power_state.pwrStateResidencyTicks::UNDEFINED   4683698000                       # Cumulative time (in ticks) in various power states
system.l2cache.demand_hits::.cpu.inst           22799                       # number of demand (read+write) hits
system.l2cache.demand_hits::.cpu.data            2197                       # number of demand (read+write) hits
system.l2cache.demand_hits::total               24996                       # number of demand (read+write) hits
system.l2cache.overall_hits::.cpu.inst          22799                       # number of overall hits
system.l2cache.overall_hits::.cpu.data           2197                       # number of overall hits
system.l2cache.overall_hits::total              24996                       # number of overall hits
system.l2cache.demand_misses::.cpu.inst          6331                       # number of demand (read+write) misses
system.l2cache.demand_misses::.cpu.data          4362                       # number of demand (read+write) misses
system.l2cache.demand_misses::total             10693                       # number of demand (read+write) misses
system.l2cache.overall_misses::.cpu.inst         6331                       # number of overall misses
system.l2cache.overall_misses::.cpu.data         4362                       # number of overall misses
system.l2cache.overall_misses::total            10693                       # number of overall misses
system.l2cache.demand_miss_latency::.cpu.inst    445516000                       # number of demand (read+write) miss cycles
system.l2cache.demand_miss_latency::.cpu.data    320836000                       # number of demand (read+write) miss cycles
system.l2cache.demand_miss_latency::total    766352000                       # number of demand (read+write) miss cycles
system.l2cache.overall_miss_latency::.cpu.inst    445516000                       # number of overall miss cycles
system.l2cache.overall_miss_latency::.cpu.data    320836000                       # number of overall miss cycles
system.l2cache.overall_miss_latency::total    766352000                       # number of overall miss cycles
system.l2cache.demand_accesses::.cpu.inst        29130                       # number of demand (read+write) accesses
system.l2cache.demand_accesses::.cpu.data         6559                       # number of demand (read+write) accesses
system.l2cache.demand_accesses::total           35689                       # number of demand (read+write) accesses
system.l2cache.overall_accesses::.cpu.inst        29130                       # number of overall (read+write) accesses
[...]
system.dcache.tags.age_task_id_blocks_1024::1           66                       # Occupied blocks per task id
system.dcache.tags.age_task_id_blocks_1024::2          180                       # Occupied blocks per task id
system.dcache.tags.occ_task_id_percent::1024            1                       # Percentage of cache occupancy per task id
system.dcache.tags.tag_accesses               2619964                       # Number of tag accesses
system.dcache.tags.data_accesses              2619964                       # Number of data accesses
system.dcache.tags.power_state.pwrStateResidencyTicks::UNDEFINED  32467648000                       # Cumulative time (in ticks) in various power states
system.cache_large.blocked_cycles::no_mshrs            0                       # number of cycles access was blocked
system.cache_large.blocked_cycles::no_targets            0                       # number of cycles access was blocked
system.cache_large.blocked::no_mshrs                0                       # number of cycles access was blocked
system.cache_large.blocked::no_targets              0                       # number of cycles access was blocked
system.cache_large.avg_blocked_cycles::no_mshrs          nan                       # average number of cycles each access was blocked
system.cache_large.avg_blocked_cycles::no_targets          nan                       # average number of cycles each access was blocked
system.cache_large.replacements                     0                       # number of replacements
system.cache_large.power_state.pwrStateResidencyTicks::UNDEFINED  32467648000                       # Cumulative time (in ticks) in various power states
system.cache_large.tags.tagsinuse                   0                       # Cycle average of tags in use
system.cache_large.tags.total_refs                  0                       # Total number of references to valid blocks.
system.cache_large.tags.sampled_refs                0                       # Sample count of references to valid blocks.
system.cache_large.tags.avg_refs                  nan                       # Average number of references to valid blocks.
system.cache_large.tags.warmup_cycle                0                       # Cycle when the warmup percentage was hit.
system.cache_large.tags.tag_accesses                0                       # Number of tag accesses
system.cache_large.tags.data_accesses               0                       # Number of data accesses
system.cache_large.tags.power_state.pwrStateResidencyTicks::UNDEFINED  32467648000                       # Cumulative time (in ticks) in various power states
system.l2cache.demand_hits::.cpu.inst          161712                       # number of demand (read+write) hits
system.l2cache.demand_hits::.cpu.data           15464                       # number of demand (read+write) hits
system.l2cache.demand_hits::total              177176                       # number of demand (read+write) hits
system.l2cache.overall_hits::.cpu.inst         161712                       # number of overall hits
system.l2cache.overall_hits::.cpu.data          15464                       # number of overall hits
system.l2cache.overall_hits::total             177176                       # number of overall hits
system.l2cache.demand_misses::.cpu.inst         40735                       # number of demand (read+write) misses
system.l2cache.demand_misses::.cpu.data         28982                       # number of demand (read+write) misses
system.l2cache.demand_misses::total             69717                       # number of demand (read+write) misses
system.l2cache.overall_misses::.cpu.inst        40735                       # number of overall misses
system.l2cache.overall_misses::.cpu.data        28982                       # number of overall misses
system.l2cache.overall_misses::total            69717                       # number of overall misses
system.l2cache.demand_miss_latency::.cpu.inst   2872642000                       # number of demand (read+write) miss cycles
system.l2cache.demand_miss_latency::.cpu.data   2164514000                       # number of demand (read+write) miss cycles
system.l2cache.demand_miss_latency::total   5037156000                       # number of demand (read+write) miss cycles
system.l2cache.overall_miss_latency::.cpu.inst   2872642000                       # number of overall miss cycles
system.l2cache.overall_miss_latency::.cpu.data   2164514000                       # number of overall miss cycles
system.l2cache.overall_miss_latency::total   5037156000                       # number of overall miss cycles
system.l2cache.demand_accesses::.cpu.inst       202447                       # number of demand (read+write) accesses
system.l2cache.demand_accesses::.cpu.data        44446                       # number of demand (read+write) accesses
system.l2cache.demand_accesses::total          246893                       # number of demand (read+write) accesses
system.l2cache.overall_accesses::.cpu.inst       202447                       # number of overall (read+write) accesses
system.l2cache.overall_accesses::.cpu.data        44446                       # number of overall (read+write) accesses
system.l2cache.overall_accesses::total         246893                       # number of overall (read+write) accesses
system.l2cache.demand_miss_rate::.cpu.inst     0.201213                       # miss rate for demand accesses
system.l2cache.demand_miss_rate::.cpu.data     0.652072                       # miss rate for demand accesses
system.l2cache.demand_miss_rate::total       0.282377                       # miss rate for demand accesses
system.l2cache.overall_miss_rate::.cpu.inst     0.201213                       # miss rate for overall accesses
system.l2cache.overall_miss_rate::.cpu.data     0.652072                       # miss rate for overall accesses
system.l2cache.overall_miss_rate::total      0.282377                       # miss rate for overall accesses
system.l2cache.demand_avg_miss_latency::.cpu.inst 70520.240579                       # average overall miss latency
system.l2cache.demand_avg_miss_latency::.cpu.data 74684.769857                       # average overall miss latency
system.l2cache.demand_avg_miss_latency::total 72251.473816                       # average overall miss latency
system.l2cache.overall_avg_miss_latency::.cpu.inst 70520.240579                       # average overall miss latency
system.l2cache.overall_avg_miss_latency::.cpu.data 74684.769857                       # average overall miss latency
system.l2cache.overall_avg_miss_latency::total 72251.473816                       # average overall miss latency
system.l2cache.blocked_cycles::no_mshrs             0                       # number of cycles access was blocked
system.l2cache.blocked_cycles::no_targets            0                       # number of cycles access was blocked
system.l2cache.blocked::no_mshrs                    0                       # number of cycles access was blocked
system.l2cache.blocked::no_targets                  0                       # number of cycles access was blocked
system.l2cache.avg_blocked_cycles::no_mshrs          nan                       # average number of cycles each access was blocked
system.l2cache.avg_blocked_cycles::no_targets          nan                       # average number of cycles each access was blocked
system.l2cache.writebacks::.writebacks          29736                       # number of writebacks
system.l2cache.writebacks::total                29736                       # number of writebacks
system.l2cache.demand_mshr_misses::.cpu.inst        40735                       # number of demand (read+write) MSHR misses
system.l2cache.demand_mshr_misses::.cpu.data        28982                       # number of demand (read+write) MSHR misses
system.l2cache.demand_mshr_misses::total        69717                       # number of demand (read+write) MSHR misses
system.l2cache.overall_mshr_misses::.cpu.inst        40735                       # number of overall MSHR misses
system.l2cache.overall_mshr_misses::.cpu.data        28982                       # number of overall MSHR misses
system.l2cache.overall_mshr_misses::total        69717                       # number of overall MSHR misses
system.l2cache.demand_mshr_miss_latency::.cpu.inst   2791172000                       # number of demand (read+write) MSHR miss cycles
system.l2cache.demand_mshr_miss_latency::.cpu.data   2106550000                       # number of demand (read+write) MSHR miss cycles
system.l2cache.demand_mshr_miss_latency::total   4897722000                       # number of demand (read+write) MSHR miss cycles
system.l2cache.overall_mshr_miss_latency::.cpu.inst   2791172000                       # number of overall MSHR miss cycles
system.l2cache.overall_mshr_miss_latency::.cpu.data   2106550000                       # number of overall MSHR miss cycles
system.l2cache.overall_mshr_miss_latency::total   4897722000                       # number of overall MSHR miss cycles
system.l2cache.demand_mshr_miss_rate::.cpu.inst     0.201213                       # mshr miss rate for demand accesses
system.l2cache.demand_mshr_miss_rate::.cpu.data     0.652072                       # mshr miss rate for demand accesses
system.l2cache.demand_mshr_miss_rate::total     0.282377                       # mshr miss rate for demand accesses
system.l2cache.overall_mshr_miss_rate::.cpu.inst     0.201213                       # mshr miss rate for overall accesses
system.l2cache.overall_mshr_miss_rate::.cpu.data     0.652072                       # mshr miss rate for overall accesses
system.l2cache.overall_mshr_miss_rate::total     0.282377                       # mshr miss rate for overall accesses
system.l2cache.demand_avg_mshr_miss_latency::.cpu.inst 68520.240579                       # average overall mshr miss latency
system.l2cache.demand_avg_mshr_miss_latency::.cpu.data 72684.769857                       # average overall mshr miss latency
system.l2cache.demand_avg_mshr_miss_latency::total 70251.473816                       # average overall mshr miss latency
system.l2cache.overall_avg_mshr_miss_latency::.cpu.inst 68520.240579                       # average overall mshr miss latency
system.l2cache.overall_avg_mshr_miss_latency::.cpu.data 72684.769857                       # average overall mshr miss latency
system.l2cache.overall_avg_mshr_miss_latency::total 70251.473816                       # average overall mshr miss latency
system.l2cache.replacements                     90663                       # number of replacements
system.l2cache.ReadReq_hits::.cpu.inst         161712                       # number of ReadReq hits
system.l2cache.ReadReq_hits::.cpu.data          15464                       # number of ReadReq hits
system.l2cache.ReadReq_hits::total             177176                       # number of ReadReq hits
system.l2cache.ReadReq_misses::.cpu.inst        40735                       # number of ReadReq misses
system.l2cache.ReadReq_misses::.cpu.data        28982                       # number of ReadReq misses
system.l2cache.ReadReq_misses::total            69717                       # number of ReadReq misses
system.l2cache.ReadReq_miss_latency::.cpu.inst   2872642000                       # number of ReadReq miss cycles
system.l2cache.ReadReq_miss_latency::.cpu.data   2164514000                       # number of ReadReq miss cycles
system.l2cache.ReadReq_miss_latency::total   5037156000                       # number of ReadReq miss cycles
system.l2cache.ReadReq_accesses::.cpu.inst       202447                       # number of ReadReq accesses(hits+misses)
system.l2cache.ReadReq_accesses::.cpu.data        44446                       # number of ReadReq accesses(hits+misses)
system.l2cache.ReadReq_accesses::total         246893                       # number of ReadReq accesses(hits+misses)
system.l2cache.ReadReq_miss_rate::.cpu.inst     0.201213                       # miss rate for ReadReq accesses
system.l2cache.ReadReq_miss_rate::.cpu.data     0.652072                       # miss rate for ReadReq accesses
system.l2cache.ReadReq_miss_rate::total      0.282377                       # miss rate for ReadReq accesses
system.l2cache.ReadReq_avg_miss_latency::.cpu.inst 70520.240579                       # average ReadReq miss latency
system.l2cache.ReadReq_avg_miss_latency::.cpu.data 74684.769857                       # average ReadReq miss latency
system.l2cache.ReadReq_avg_miss_latency::total 72251.473816                       # average ReadReq miss latency
system.l2cache.ReadReq_mshr_misses::.cpu.inst        40735                       # number of ReadReq MSHR misses
system.l2cache.ReadReq_mshr_misses::.cpu.data        28982                       # number of ReadReq MSHR misses
system.l2cache.ReadReq_mshr_misses::total        69717                       # number of ReadReq MSHR misses
system.l2cache.ReadReq_mshr_miss_latency::.cpu.inst   2791172000                       # number of ReadReq MSHR miss cycles
system.l2cache.ReadReq_mshr_miss_latency::.cpu.data   2106550000                       # number of ReadReq MSHR miss cycles
system.l2cache.ReadReq_mshr_miss_latency::total   4897722000                       # number of ReadReq MSHR miss cycles
system.l2cache.ReadReq_mshr_miss_rate::.cpu.inst     0.201213                       # mshr miss rate for ReadReq accesses
system.l2cache.ReadReq_mshr_miss_rate::.cpu.data     0.652072                       # mshr miss rate for ReadReq accesses
system.l2cache.ReadReq_mshr_miss_rate::total     0.282377                       # mshr miss rate for ReadReq accesses
system.l2cache.ReadReq_avg_mshr_miss_latency::.cpu.inst 68520.240579                       # average ReadReq mshr miss latency
system.l2cache.ReadReq_avg_mshr_miss_latency::.cpu.data 72684.769857                       # average ReadReq mshr miss latency
system.l2cache.ReadReq_avg_mshr_miss_latency::total 70251.473816                       # average ReadReq mshr miss latency
system.l2cache.WritebackDirty_hits::.writebacks        36295                       # number of WritebackDirty hits
system.l2cache.WritebackDirty_hits::total        36295                       # number of WritebackDirty hits
system.l2cache.WritebackDirty_accesses::.writebacks        36295                       # number of WritebackDirty accesses(hits+misses)
system.l2cache.WritebackDirty_accesses::total        36295                       # number of WritebackDirty accesses(hits+misses)
system.l2cache.power_state.pwrStateResidencyTicks::UNDEFINED  32467648000                       # Cumulative time (in ticks) in various power states
system.l2cache.tags.tagsinuse              509.686846                       # Cycle average of tags in use
system.l2cache.tags.total_refs                 283188                       # Total number of references to valid blocks.
system.l2cache.tags.sampled_refs                91175                       # Sample count of references to valid blocks.
system.l2cache.tags.avg_refs                 3.105983                       # Average number of references to valid blocks.
system.l2cache.tags.warmup_cycle                76000                       # Cycle when the warmup percentage was hit.
system.l2cache.tags.occ_blocks::.writebacks   214.542975                       # Average occupied blocks per requestor
system.l2cache.tags.occ_blocks::.cpu.inst    36.382264                       # Average occupied blocks per requestor
system.l2cache.tags.occ_blocks::.cpu.data   258.761608                       # Average occupied blocks per requestor
system.l2cache.tags.occ_percent::.writebacks     0.419029                       # Average percentage of cache occupancy
system.l2cache.tags.occ_percent::.cpu.inst     0.071059                       # Average percentage of cache occupancy
system.l2cache.tags.occ_percent::.cpu.data     0.505394                       # Average percentage of cache occupancy
system.l2cache.tags.occ_percent::total       0.995482                       # Average percentage of cache occupancy
system.l2cache.tags.occ_task_id_blocks::1024          512                       # Occupied blocks per task id
system.l2cache.tags.age_task_id_blocks_1024::0           15                       # Occupied blocks per task id
system.l2cache.tags.age_task_id_blocks_1024::1           81                       # Occupied blocks per task id
system.l2cache.tags.age_task_id_blocks_1024::2          370                       # Occupied blocks per task id
system.l2cache.tags.age_task_id_blocks_1024::3           46                       # Occupied blocks per task id
system.l2cache.tags.occ_task_id_percent::1024            1                       # Percentage of cache occupancy per task id
system.l2cache.tags.tag_accesses               374363                       # Number of tag accesses
system.l2cache.tags.data_accesses              374363                       # Number of data accesses
system.l2cache.tags.power_state.pwrStateResidencyTicks::UNDEFINED  32467648000                       # Cumulative time (in ticks) in various power states
system.l2bar.trans_dist::ReadReq               246893                       # Transaction distribution
system.l2bar.trans_dist::ReadResp              246893                       # Transaction distribution
system.l2bar.trans_dist::WritebackDirty         36295                       # Transaction distribution
system.l2bar.pkt_count_system.dcache.mem_side::system.l2cache.cpu_side       125187                       # Packet count per connected master and slave (bytes)
system.l2bar.pkt_count_system.icache.mem_side::system.l2cache.cpu_side       404894                       # Packet count per connected master and slave (bytes)
system.l2bar.pkt_count::total                  530081                       # Packet count per connected master and slave (bytes)
system.l2bar.pkt_size_system.dcache.mem_side::system.l2cache.cpu_side      5167424                       # Cumulative packet size per connected master and slave (bytes)
system.l2bar.pkt_size_system.icache.mem_side::system.l2cache.cpu_side     12956608                       # Cumulative packet size per connected master and slave (bytes)
system.l2bar.pkt_size::total                 18124032                       # Cumulative packet size per connected master and slave (bytes)
system.l2bar.respLayer1.occupancy          1012235000                       # Layer occupancy (ticks)
system.l2bar.respLayer1.utilization               3.1                       # Layer utilization (%)
system.l2bar.reqLayer0.occupancy            428368000                       # Layer occupancy (ticks)
system.l2bar.reqLayer0.utilization                1.3                       # Layer utilization (%)
system.l2bar.respLayer0.occupancy           222230000                       # Layer occupancy (ticks)
system.l2bar.respLayer0.utilization               0.7                       # Layer utilization (%)
system.l2bar.power_state.pwrStateResidencyTicks::UNDEFINED  32467648000                       # Cumulative time (in ticks) in various power states
system.cpu.dtb.walker.power_state.pwrStateResidencyTicks::UNDEFINED  32467648000                       # Cumulative time (in ticks) in various power states
system.cpu.interrupts.clk_domain.clock          16000                       # Clock period in ticks
system.cpu.itb.walker.power_state.pwrStateResidencyTicks::UNDEFINED  32467648000                       # Cumulative time (in ticks) in various power states
system.cpu.power_state.numTransitions               1                       # Number of power state transitions
system.cpu.power_state.pwrStateResidencyTicks::ON  32467648000                       # Cumulative time (in ticks) in various power states

---------- End Simulation Statistics   ----------
