
---------- Begin Simulation Statistics ----------
final_tick                               686439354000                       # Number of ticks from beginning of simulation (restored from checkpoints and never reset)
host_inst_rate                                 241019                       # Simulator instruction rate (inst/s)
host_mem_usage                                 762968                       # Number of bytes of host memory used
host_op_rate                                   465745                       # Simulator op (including micro ops) rate (op/s)
host_seconds                                    41.49                       # Real time elapsed on the host
host_tick_rate                            16544459036                       # Simulator tick rate (ticks/s)
sim_freq                                 1000000000000                       # Frequency of simulated ticks
sim_insts                                    10000001                       # Number of instructions simulated
sim_ops                                      19324022                       # Number of ops (including micro ops) simulated
sim_seconds                                  0.686439                       # Number of seconds simulated
sim_ticks                                686439354000                       # Number of ticks simulated
system.cachebus.snoop_filter.hit_multi_requests            0                       # Number of requests hitting in the snoop filter with multiple (>1) holders of the requested data.
system.cachebus.snoop_filter.hit_multi_snoops            0                       # Number of snoops hitting in the snoop filter with multiple (>1) holders of the requested data.
system.cachebus.snoop_filter.hit_single_requests            0                       # Number of requests hitting in the snoop filter with a single holder of the requested data.
system.cachebus.snoop_filter.hit_single_snoops            0                       # Number of snoops hitting in the snoop filter with a single holder of the requested data.
system.cachebus.snoop_filter.tot_requests            0                       # Total number of requests made to the snoop filter.
system.cachebus.snoop_filter.tot_snoops             0                       # Total number of snoops made to the snoop filter.
system.cpu.Branches                           2392372                       # Number of branches fetched
system.cpu.committedInsts                    10000001                       # Number of instructions committed
system.cpu.committedOps                      19324022                       # Number of ops (including micro ops) committed
system.cpu.dtb.rdAccesses                     1888741                       # TLB accesses on read requests
system.cpu.dtb.rdMisses                          1531                       # TLB misses on read requests
system.cpu.dtb.wrAccesses                     1061514                       # TLB accesses on write requests
system.cpu.dtb.wrMisses                           180                       # TLB misses on write requests
system.cpu.idle_fraction                            0                       # Percentage of idle cycles
system.cpu.itb.rdAccesses                           0                       # TLB accesses on read requests
system.cpu.itb.rdMisses                             0                       # TLB misses on read requests
system.cpu.itb.wrAccesses                    12775417                       # TLB accesses on write requests
system.cpu.itb.wrMisses                           230                       # TLB misses on write requests
system.cpu.not_idle_fraction                        1                       # Percentage of non-idle cycles
system.cpu.numCycles                        686439354                       # number of cpu cycles simulated
system.cpu.numWorkItemsCompleted                    0                       # number of work items this cpu completed
system.cpu.numWorkItemsStarted                      0                       # number of work items this cpu started
system.cpu.num_busy_cycles                  686439354                       # Number of busy cycles
system.cpu.num_cc_register_reads             11312612                       # number of times the CC registers were read
system.cpu.num_cc_register_writes             5820896                       # number of times the CC registers were written
system.cpu.num_conditional_control_insts      1467188                       # number of instructions that are conditional controls
system.cpu.num_fp_alu_accesses                 184416                       # Number of float alu accesses
system.cpu.num_fp_insts                        184416                       # number of float instructions
system.cpu.num_fp_register_reads               311255                       # number of times the floating registers were read
system.cpu.num_fp_register_writes              158288                       # number of times the floating registers were written
system.cpu.num_func_calls                      588370                       # number of times a function call or return occured
system.cpu.num_idle_cycles                          0                       # Number of idle cycles
system.cpu.num_int_alu_accesses              19163073                       # Number of integer alu accesses
system.cpu.num_int_insts                     19163073                       # number of integer instructions
system.cpu.num_int_register_reads            37740615                       # number of times the integer registers were read
system.cpu.num_int_register_writes           15692019                       # number of times the integer registers were written
system.cpu.num_load_insts                     1887695                       # Number of load instructions
system.cpu.num_mem_refs                       2949026                       # number of memory refs
system.cpu.num_store_insts                    1061331                       # Number of store instructions
system.cpu.num_vec_alu_accesses                     0                       # Number of vector alu accesses
system.cpu.num_vec_insts                            0                       # number of vector instructions
system.cpu.num_vec_register_reads                   0                       # number of times the vector registers were read
system.cpu.num_vec_register_writes                  0                       # number of times the vector registers were written
system.cpu.op_class::No_OpClass                 30676      0.16%      0.16% # Class of executed instruction
system.cpu.op_class::IntAlu                  16200437     83.84%     83.99% # Class of executed instruction
system.cpu.op_class::IntMult                       22      0.00%     83.99% # Class of executed instruction
system.cpu.op_class::IntDiv                        42      0.00%     83.99% # Class of executed instruction
system.cpu.op_class::FloatAdd                    3984      0.02%     84.02% # Class of executed instruction
system.cpu.op_class::FloatCmp                       0      0.00%     84.02% # Class of executed instruction
system.cpu.op_class::FloatCvt                       0      0.00%     84.02% # Class of executed instruction
system.cpu.op_class::FloatMult                      0      0.00%     84.02% # Class of executed instruction
system.cpu.op_class::FloatMultAcc                   0      0.00%     84.02% # Class of executed instruction
system.cpu.op_class::FloatDiv                       0      0.00%     84.02% # Class of executed instruction
system.cpu.op_class::FloatMisc                      0      0.00%     84.02% # Class of executed instruction
system.cpu.op_class::FloatSqrt                      0      0.00%     84.02% # Class of executed instruction
system.cpu.op_class::SimdAdd                       20      0.00%     84.02% # Class of executed instruction
system.cpu.op_class::SimdAddAcc                     0      0.00%     84.02% # Class of executed instruction
system.cpu.op_class::SimdAlu                    54168      0.28%     84.30% # Class of executed instruction
system.cpu.op_class::SimdCmp                     1606      0.01%     84.30% # Class of executed instruction
system.cpu.op_class::SimdCvt                    32076      0.17%     84.47% # Class of executed instruction
system.cpu.op_class::SimdMisc                   52023      0.27%     84.74% # Class of executed instruction
system.cpu.op_class::SimdMult                       0      0.00%     84.74% # Class of executed instruction
system.cpu.op_class::SimdMultAcc                    0      0.00%     84.74% # Class of executed instruction
system.cpu.op_class::SimdShift                      0      0.00%     84.74% # Class of executed instruction
system.cpu.op_class::SimdShiftAcc                   0      0.00%     84.74% # Class of executed instruction
system.cpu.op_class::SimdDiv                        0      0.00%     84.74% # Class of executed instruction
system.cpu.op_class::SimdSqrt                       0      0.00%     84.74% # Class of executed instruction
system.cpu.op_class::SimdFloatAdd                   0      0.00%     84.74% # Class of executed instruction
system.cpu.op_class::SimdFloatAlu                   0      0.00%     84.74% # Class of executed instruction
system.cpu.op_class::SimdFloatCmp                   0      0.00%     84.74% # Class of executed instruction
system.cpu.op_class::SimdFloatCvt                   0      0.00%     84.74% # Class of executed instruction
system.cpu.op_class::SimdFloatDiv                  25      0.00%     84.74% # Class of executed instruction
system.cpu.op_class::SimdFloatMisc                  0      0.00%     84.74% # Class of executed instruction
system.cpu.op_class::SimdFloatMult                  0      0.00%     84.74% # Class of executed instruction
system.cpu.op_class::SimdFloatMultAcc               0      0.00%     84.74% # Class of executed instruction
system.cpu.op_class::SimdFloatSqrt                  0      0.00%     84.74% # Class of executed instruction
system.cpu.op_class::SimdReduceAdd                  0      0.00%     84.74% # Class of executed instruction
system.cpu.op_class::SimdReduceAlu                  0      0.00%     84.74% # Class of executed instruction
system.cpu.op_class::SimdReduceCmp                  0      0.00%     84.74% # Class of executed instruction
system.cpu.op_class::SimdFloatReduceAdd             0      0.00%     84.74% # Class of executed instruction
system.cpu.op_class::SimdFloatReduceCmp             0      0.00%     84.74% # Class of executed instruction
system.cpu.op_class::SimdAes                        0      0.00%     84.74% # Class of executed instruction
system.cpu.op_class::SimdAesMix                     0      0.00%     84.74% # Class of executed instruction
system.cpu.op_class::SimdSha1Hash                   0      0.00%     84.74% # Class of executed instruction
system.cpu.op_class::SimdSha1Hash2                  0      0.00%     84.74% # Class of executed instruction
system.cpu.op_class::SimdSha256Hash                 0      0.00%     84.74% # Class of executed instruction
system.cpu.op_class::SimdSha256Hash2                0      0.00%     84.74% # Class of executed instruction
system.cpu.op_class::SimdShaSigma2                  0      0.00%     84.74% # Class of executed instruction
system.cpu.op_class::SimdShaSigma3                  0      0.00%     84.74% # Class of executed instruction
system.cpu.op_class::SimdPredAlu                    0      0.00%     84.74% # Class of executed instruction
system.cpu.op_class::MemRead                  1861083      9.63%     94.37% # Class of executed instruction
system.cpu.op_class::MemWrite                 1059338      5.48%     99.85% # Class of executed instruction
system.cpu.op_class::FloatMemRead               26612      0.14%     99.99% # Class of executed instruction
system.cpu.op_class::FloatMemWrite               1993      0.01%    100.00% # Class of executed instruction
system.cpu.op_class::IprAccess                      0      0.00%    100.00% # Class of executed instruction
system.cpu.op_class::InstPrefetch                   0      0.00%    100.00% # Class of executed instruction
system.cpu.op_class::total                   19324105                       # Class of executed instruction
system.cpu.workload.numSyscalls                    16                       # Number of system calls
system.membus.snoop_filter.hit_multi_requests            0                       # Number of requests hitting in the snoop filter with multiple (>1) holders of the requested data.
system.membus.snoop_filter.hit_multi_snoops            0                       # Number of snoops hitting in the snoop filter with multiple (>1) holders of the requested data.
system.membus.snoop_filter.hit_single_requests            0                       # Number of requests hitting in the snoop filter with a single holder of the requested data.
system.membus.snoop_filter.hit_single_snoops            0                       # Number of snoops hitting in the snoop filter with a single holder of the requested data.
system.membus.snoop_filter.tot_requests         11060                       # Total number of requests made to the snoop filter.
system.membus.snoop_filter.tot_snoops               0                       # Total number of snoops made to the snoop filter.
system.membus.trans_dist::ReadReq            13001033                       # Transaction distribution
system.membus.trans_dist::ReadResp           13008444                       # Transaction distribution
system.membus.trans_dist::WriteReq             154214                       # Transaction distribution
system.membus.trans_dist::WriteResp            154214                       # Transaction distribution
system.membus.trans_dist::ReadExReq              3648                       # Transaction distribution
system.membus.trans_dist::ReadExResp             3648                       # Transaction distribution
system.membus.trans_dist::ReadSharedReq          7412                       # Transaction distribution
system.membus.pkt_count_system.cpu.icache_port::system.mem_ctrl.port     25550833                       # Packet count per connected master and slave (bytes)
system.membus.pkt_count_system.cpu.icache_port::total     25550833                       # Packet count per connected master and slave (bytes)
system.membus.pkt_count_system.memobj.mem_side::system.mem_ctrl.port       759660                       # Packet count per connected master and slave (bytes)
system.membus.pkt_count_system.memobj.mem_side::total       759660                       # Packet count per connected master and slave (bytes)
system.membus.pkt_count_system.cache.mem_side::system.mem_ctrl.port        22120                       # Packet count per connected master and slave (bytes)
system.membus.pkt_count_system.cache.mem_side::total        22120                       # Packet count per connected master and slave (bytes)
system.membus.pkt_count::total               26332613                       # Packet count per connected master and slave (bytes)
system.membus.pkt_size_system.cpu.icache_port::system.mem_ctrl.port    102203328                       # Cumulative packet size per connected master and slave (bytes)
system.membus.pkt_size_system.cpu.icache_port::total    102203328                       # Cumulative packet size per connected master and slave (bytes)
system.membus.pkt_size_system.memobj.mem_side::system.mem_ctrl.port      2645687                       # Cumulative packet size per connected master and slave (bytes)
system.membus.pkt_size_system.memobj.mem_side::total      2645687                       # Cumulative packet size per connected master and slave (bytes)
system.membus.pkt_size_system.cache.mem_side::system.mem_ctrl.port       707840                       # Cumulative packet size per connected master and slave (bytes)
system.membus.pkt_size_system.cache.mem_side::total       707840                       # Cumulative packet size per connected master and slave (bytes)
system.membus.pkt_size::total               105556855                       # Cumulative packet size per connected master and slave (bytes)
system.membus.snoops                                0                       # Total snoops (count)
system.membus.snoopTraffic                          0                       # Total snoop traffic (bytes)
system.membus.snoop_fanout::samples          13166307                       # Request fanout histogram
system.membus.snoop_fanout::mean                    0                       # Request fanout histogram
system.membus.snoop_fanout::stdev                   0                       # Request fanout histogram
system.membus.snoop_fanout::underflows              0      0.00%      0.00% # Request fanout histogram
system.membus.snoop_fanout::0                13166307    100.00%    100.00% # Request fanout histogram
system.membus.snoop_fanout::1                       0      0.00%    100.00% # Request fanout histogram
system.membus.snoop_fanout::overflows               0      0.00%    100.00% # Request fanout histogram
system.membus.snoop_fanout::min_value               0                       # Request fanout histogram
system.membus.snoop_fanout::max_value               0                       # Request fanout histogram
system.membus.snoop_fanout::total            13166307                       # Request fanout histogram
system.membus.reqLayer2.occupancy         13320521000                       # Layer occupancy (ticks)
system.membus.reqLayer2.utilization               1.9                       # Layer utilization (%)
system.membus.respLayer1.occupancy          670141250                       # Layer occupancy (ticks)
system.membus.respLayer1.utilization              0.1                       # Layer utilization (%)
system.membus.respLayer0.occupancy        28962988750                       # Layer occupancy (ticks)
system.membus.respLayer0.utilization              4.2                       # Layer utilization (%)
system.membus.respLayer2.occupancy           60831500                       # Layer occupancy (ticks)
system.membus.respLayer2.utilization              0.0                       # Layer utilization (%)
system.membus.power_state.pwrStateResidencyTicks::UNDEFINED 686439354000                       # Cumulative time (in ticks) in various power states
system.mem_ctrl.bytes_read::.cpu.inst       102203328                       # Number of bytes read from this memory
system.mem_ctrl.bytes_read::.cpu.data         2261470                       # Number of bytes read from this memory
system.mem_ctrl.bytes_read::total           104464798                       # Number of bytes read from this memory
system.mem_ctrl.bytes_inst_read::.cpu.inst    102203328                       # Number of instructions bytes read from this memory
system.mem_ctrl.bytes_inst_read::total      102203328                       # Number of instructions bytes read from this memory
system.mem_ctrl.bytes_written::.cpu.data      1092057                       # Number of bytes written to this memory
system.mem_ctrl.bytes_written::total          1092057                       # Number of bytes written to this memory
system.mem_ctrl.num_reads::.cpu.inst         12775416                       # Number of read requests responded to by this memory
system.mem_ctrl.num_reads::.cpu.data           236676                       # Number of read requests responded to by this memory
system.mem_ctrl.num_reads::total             13012092                       # Number of read requests responded to by this memory
system.mem_ctrl.num_writes::.cpu.data          154214                       # Number of write requests responded to by this memory
system.mem_ctrl.num_writes::total              154214                       # Number of write requests responded to by this memory
system.mem_ctrl.bw_read::.cpu.inst          148889086                       # Total read bandwidth from this memory (bytes/s)
system.mem_ctrl.bw_read::.cpu.data            3294494                       # Total read bandwidth from this memory (bytes/s)
system.mem_ctrl.bw_read::total              152183579                       # Total read bandwidth from this memory (bytes/s)
system.mem_ctrl.bw_inst_read::.cpu.inst     148889086                       # Instruction read bandwidth from this memory (bytes/s)
system.mem_ctrl.bw_inst_read::total         148889086                       # Instruction read bandwidth from this memory (bytes/s)
system.mem_ctrl.bw_write::.cpu.data           1590901                       # Write bandwidth from this memory (bytes/s)
system.mem_ctrl.bw_write::total               1590901                       # Write bandwidth from this memory (bytes/s)
system.mem_ctrl.bw_total::.cpu.inst         148889086                       # Total bandwidth to/from this memory (bytes/s)
system.mem_ctrl.bw_total::.cpu.data           4885394                       # Total bandwidth to/from this memory (bytes/s)
system.mem_ctrl.bw_total::total             153774480                       # Total bandwidth to/from this memory (bytes/s)
system.mem_ctrl.avgPriority_.cpu.inst::samples  12775417.00                       # Average QoS priority value for accepted requests
system.mem_ctrl.avgPriority_.cpu.data::samples    215804.00                       # Average QoS priority value for accepted requests
system.mem_ctrl.priorityMinLatency       0.000000018750                       # per QoS priority minimum request to response latency (s)
system.mem_ctrl.priorityMaxLatency       0.003444283750                       # per QoS priority maximum request to response latency (s)
system.mem_ctrl.numReadWriteTurnArounds           561                       # Number of turnarounds from READ to WRITE
system.mem_ctrl.numWriteReadTurnArounds           561                       # Number of turnarounds from WRITE to READ
system.mem_ctrl.numStayReadState             26294331                       # Number of times bus staying in READ state
system.mem_ctrl.numStayWriteState                8423                       # Number of times bus staying in WRITE state
system.mem_ctrl.readReqs                     13012093                       # Number of read requests accepted
system.mem_ctrl.writeReqs                      154214                       # Number of write requests accepted
system.mem_ctrl.readBursts                   13012093                       # Number of DRAM read bursts, including those serviced by the write queue
system.mem_ctrl.writeBursts                    154214                       # Number of DRAM write bursts, including those merged in the write queue
system.mem_ctrl.servicedByWrQ                   29881                       # Number of DRAM read bursts serviced by the write queue
system.mem_ctrl.mergedWrBursts                 145205                       # Number of DRAM write bursts merged with an existing one
system.mem_ctrl.neitherReadNorWriteReqs             0                       # Number of requests that are neither read nor write
system.mem_ctrl.perBankRdBursts::0              72460                       # Per bank write bursts
system.mem_ctrl.perBankRdBursts::1             256655                       # Per bank write bursts
system.mem_ctrl.perBankRdBursts::2             126472                       # Per bank write bursts
system.mem_ctrl.perBankRdBursts::3              61562                       # Per bank write bursts
system.mem_ctrl.perBankRdBursts::4            8819232                       # Per bank write bursts
system.mem_ctrl.perBankRdBursts::5            1575034                       # Per bank write bursts
system.mem_ctrl.perBankRdBursts::6              20551                       # Per bank write bursts
system.mem_ctrl.perBankRdBursts::7             408213                       # Per bank write bursts
system.mem_ctrl.perBankRdBursts::8              22351                       # Per bank write bursts
system.mem_ctrl.perBankRdBursts::9             125621                       # Per bank write bursts
system.mem_ctrl.perBankRdBursts::10            130120                       # Per bank write bursts
system.mem_ctrl.perBankRdBursts::11            488154                       # Per bank write bursts
system.mem_ctrl.perBankRdBursts::12            318311                       # Per bank write bursts
system.mem_ctrl.perBankRdBursts::13            136180                       # Per bank write bursts
system.mem_ctrl.perBankRdBursts::14            177914                       # Per bank write bursts
system.mem_ctrl.perBankRdBursts::15            243382                       # Per bank write bursts
system.mem_ctrl.perBankWrBursts::0                549                       # Per bank write bursts
system.mem_ctrl.perBankWrBursts::1                145                       # Per bank write bursts
system.mem_ctrl.perBankWrBursts::2               2993                       # Per bank write bursts
system.mem_ctrl.perBankWrBursts::3                  9                       # Per bank write bursts
system.mem_ctrl.perBankWrBursts::4                 87                       # Per bank write bursts
system.mem_ctrl.perBankWrBursts::5                365                       # Per bank write bursts
system.mem_ctrl.perBankWrBursts::6                160                       # Per bank write bursts
system.mem_ctrl.perBankWrBursts::7                 78                       # Per bank write bursts
system.mem_ctrl.perBankWrBursts::8                526                       # Per bank write bursts
system.mem_ctrl.perBankWrBursts::9               1106                       # Per bank write bursts
system.mem_ctrl.perBankWrBursts::10               335                       # Per bank write bursts
system.mem_ctrl.perBankWrBursts::11               329                       # Per bank write bursts
system.mem_ctrl.perBankWrBursts::12               483                       # Per bank write bursts
system.mem_ctrl.perBankWrBursts::13               290                       # Per bank write bursts
system.mem_ctrl.perBankWrBursts::14               734                       # Per bank write bursts
system.mem_ctrl.perBankWrBursts::15               791                       # Per bank write bursts
system.mem_ctrl.avgRdQLen                        1.00                       # Average read queue length when enqueuing
system.mem_ctrl.avgWrQLen                       28.71                       # Average write queue length when enqueuing
system.mem_ctrl.totQLat                   35953385000                       # Total ticks spent queuing
system.mem_ctrl.totBusLat                 64911060000                       # Total ticks spent in databus transfers
system.mem_ctrl.totMemAccLat             279369860000                       # Total ticks spent from burst creation until serviced by the DRAM
system.mem_ctrl.avgQLat                       2769.43                       # Average queueing delay per DRAM burst
system.mem_ctrl.avgBusLat                     5000.00                       # Average bus latency per DRAM burst
system.mem_ctrl.avgMemAccLat                 21519.43                       # Average memory access latency per DRAM burst
system.mem_ctrl.numRdRetry                          0                       # Number of times read queue was full causing retry
system.mem_ctrl.numWrRetry                          0                       # Number of times write queue was full causing retry
system.mem_ctrl.readRowHits                  12019037                       # Number of row buffer hits during reads
system.mem_ctrl.writeRowHits                     7866                       # Number of row buffer hits during writes
system.mem_ctrl.readRowHitRate                  92.58                       # Row buffer hit rate for reads
system.mem_ctrl.writeRowHitRate                 87.31                       # Row buffer hit rate for writes
system.mem_ctrl.readPktSize::0                  15921                       # Read request sizes (log2)
system.mem_ctrl.readPktSize::1                   4090                       # Read request sizes (log2)
system.mem_ctrl.readPktSize::2                  28682                       # Read request sizes (log2)
system.mem_ctrl.readPktSize::3               12952340                       # Read request sizes (log2)
system.mem_ctrl.readPktSize::4                      0                       # Read request sizes (log2)
system.mem_ctrl.readPktSize::5                      0                       # Read request sizes (log2)
system.mem_ctrl.readPktSize::6                  11060                       # Read request sizes (log2)
system.mem_ctrl.writePktSize::0                  8385                       # Write request sizes (log2)
system.mem_ctrl.writePktSize::1                  1401                       # Write request sizes (log2)
system.mem_ctrl.writePktSize::2                 18593                       # Write request sizes (log2)
system.mem_ctrl.writePktSize::3                125835                       # Write request sizes (log2)
system.mem_ctrl.writePktSize::4                     0                       # Write request sizes (log2)
system.mem_ctrl.writePktSize::5                     0                       # Write request sizes (log2)
system.mem_ctrl.writePktSize::6                     0                       # Write request sizes (log2)
system.mem_ctrl.rdQLenPdf::0                 12981947                       # What read queue length does an incoming req see
system.mem_ctrl.rdQLenPdf::1                      265                       # What read queue length does an incoming req see
system.mem_ctrl.rdQLenPdf::2                        0                       # What read queue length does an incoming req see
system.mem_ctrl.rdQLenPdf::3                        0                       # What read queue length does an incoming req see
system.mem_ctrl.rdQLenPdf::4                        0                       # What read queue length does an incoming req see
system.mem_ctrl.rdQLenPdf::5                        0                       # What read queue length does an incoming req see
system.mem_ctrl.rdQLenPdf::6                        0                       # What read queue length does an incoming req see
system.mem_ctrl.rdQLenPdf::7                        0                       # What read queue length does an incoming req see
system.mem_ctrl.rdQLenPdf::8                        0                       # What read queue length does an incoming req see
system.mem_ctrl.rdQLenPdf::9                        0                       # What read queue length does an incoming req see
system.mem_ctrl.rdQLenPdf::10                       0                       # What read queue length does an incoming req see
system.mem_ctrl.rdQLenPdf::11                       0                       # What read queue length does an incoming req see
system.mem_ctrl.rdQLenPdf::12                       0                       # What read queue length does an incoming req see
system.mem_ctrl.rdQLenPdf::13                       0                       # What read queue length does an incoming req see
system.mem_ctrl.rdQLenPdf::14                       0                       # What read queue length does an incoming req see
system.mem_ctrl.rdQLenPdf::15                       0                       # What read queue length does an incoming req see
system.mem_ctrl.rdQLenPdf::16                       0                       # What read queue length does an incoming req see
system.mem_ctrl.rdQLenPdf::17                       0                       # What read queue length does an incoming req see
system.mem_ctrl.rdQLenPdf::18                       0                       # What read queue length does an incoming req see
system.mem_ctrl.rdQLenPdf::19                       0                       # What read queue length does an incoming req see
system.mem_ctrl.rdQLenPdf::20                       0                       # What read queue length does an incoming req see
system.mem_ctrl.rdQLenPdf::21                       0                       # What read queue length does an incoming req see
system.mem_ctrl.rdQLenPdf::22                       0                       # What read queue length does an incoming req see
system.mem_ctrl.rdQLenPdf::23                       0                       # What read queue length does an incoming req see
system.mem_ctrl.rdQLenPdf::24                       0                       # What read queue length does an incoming req see
system.mem_ctrl.rdQLenPdf::25                       0                       # What read queue length does an incoming req see
system.mem_ctrl.rdQLenPdf::26                       0                       # What read queue length does an incoming req see
system.mem_ctrl.rdQLenPdf::27                       0                       # What read queue length does an incoming req see
system.mem_ctrl.rdQLenPdf::28                       0                       # What read queue length does an incoming req see
system.mem_ctrl.rdQLenPdf::29                       0                       # What read queue length does an incoming req see
system.mem_ctrl.rdQLenPdf::30                       0                       # What read queue length does an incoming req see
system.mem_ctrl.rdQLenPdf::31                       0                       # What read queue length does an incoming req see
system.mem_ctrl.wrQLenPdf::0                        1                       # What write queue length does an incoming req see
system.mem_ctrl.wrQLenPdf::1                        1                       # What write queue length does an incoming req see
system.mem_ctrl.wrQLenPdf::2                        1                       # What write queue length does an incoming req see
system.mem_ctrl.wrQLenPdf::3                        1                       # What write queue length does an incoming req see
system.mem_ctrl.wrQLenPdf::4                        1                       # What write queue length does an incoming req see
system.mem_ctrl.wrQLenPdf::5                        1                       # What write queue length does an incoming req see
system.mem_ctrl.wrQLenPdf::6                        1                       # What write queue length does an incoming req see
system.mem_ctrl.wrQLenPdf::7                        1                       # What write queue length does an incoming req see
system.mem_ctrl.wrQLenPdf::8                        1                       # What write queue length does an incoming req see
system.mem_ctrl.wrQLenPdf::9                        1                       # What write queue length does an incoming req see
system.mem_ctrl.wrQLenPdf::10                       1                       # What write queue length does an incoming req see
system.mem_ctrl.wrQLenPdf::11                       1                       # What write queue length does an incoming req see
system.mem_ctrl.wrQLenPdf::12                       1                       # What write queue length does an incoming req see
system.mem_ctrl.wrQLenPdf::13                       1                       # What write queue length does an incoming req see
system.mem_ctrl.wrQLenPdf::14                       1                       # What write queue length does an incoming req see
system.mem_ctrl.wrQLenPdf::15                       3                       # What write queue length does an incoming req see
system.mem_ctrl.wrQLenPdf::16                       3                       # What write queue length does an incoming req see
system.mem_ctrl.wrQLenPdf::17                     562                       # What write queue length does an incoming req see
system.mem_ctrl.wrQLenPdf::18                     562                       # What write queue length does an incoming req see
system.mem_ctrl.wrQLenPdf::19                     562                       # What write queue length does an incoming req see
system.mem_ctrl.wrQLenPdf::20                     562                       # What write queue length does an incoming req see
system.mem_ctrl.wrQLenPdf::21                     562                       # What write queue length does an incoming req see
system.mem_ctrl.wrQLenPdf::22                     562                       # What write queue length does an incoming req see
system.mem_ctrl.wrQLenPdf::23                     562                       # What write queue length does an incoming req see
system.mem_ctrl.wrQLenPdf::24                     562                       # What write queue length does an incoming req see
system.mem_ctrl.wrQLenPdf::25                     562                       # What write queue length does an incoming req see
system.mem_ctrl.wrQLenPdf::26                     562                       # What write queue length does an incoming req see
system.mem_ctrl.wrQLenPdf::27                     562                       # What write queue length does an incoming req see
system.mem_ctrl.wrQLenPdf::28                     562                       # What write queue length does an incoming req see
system.mem_ctrl.wrQLenPdf::29                     561                       # What write queue length does an incoming req see
system.mem_ctrl.wrQLenPdf::30                     561                       # What write queue length does an incoming req see
system.mem_ctrl.wrQLenPdf::31                     561                       # What write queue length does an incoming req see
system.mem_ctrl.wrQLenPdf::32                     561                       # What write queue length does an incoming req see
system.mem_ctrl.wrQLenPdf::33                       0                       # What write queue length does an incoming req see
system.mem_ctrl.wrQLenPdf::34                       0                       # What write queue length does an incoming req see
system.mem_ctrl.wrQLenPdf::35                       0                       # What write queue length does an incoming req see
system.mem_ctrl.wrQLenPdf::36                       0                       # What write queue length does an incoming req see
system.mem_ctrl.wrQLenPdf::37                       0                       # What write queue length does an incoming req see
system.mem_ctrl.wrQLenPdf::38                       0                       # What write queue length does an incoming req see
system.mem_ctrl.wrQLenPdf::39                       0                       # What write queue length does an incoming req see
system.mem_ctrl.wrQLenPdf::40                       0                       # What write queue length does an incoming req see
system.mem_ctrl.wrQLenPdf::41                       0                       # What write queue length does an incoming req see
system.mem_ctrl.wrQLenPdf::42                       0                       # What write queue length does an incoming req see
system.mem_ctrl.wrQLenPdf::43                       0                       # What write queue length does an incoming req see
system.mem_ctrl.wrQLenPdf::44                       0                       # What write queue length does an incoming req see
system.mem_ctrl.wrQLenPdf::45                       0                       # What write queue length does an incoming req see
system.mem_ctrl.wrQLenPdf::46                       0                       # What write queue length does an incoming req see
system.mem_ctrl.wrQLenPdf::47                       0                       # What write queue length does an incoming req see
system.mem_ctrl.wrQLenPdf::48                       0                       # What write queue length does an incoming req see
system.mem_ctrl.wrQLenPdf::49                       0                       # What write queue length does an incoming req see
system.mem_ctrl.wrQLenPdf::50                       0                       # What write queue length does an incoming req see
system.mem_ctrl.wrQLenPdf::51                       0                       # What write queue length does an incoming req see
system.mem_ctrl.wrQLenPdf::52                       0                       # What write queue length does an incoming req see
system.mem_ctrl.wrQLenPdf::53                       0                       # What write queue length does an incoming req see
system.mem_ctrl.wrQLenPdf::54                       0                       # What write queue length does an incoming req see
system.mem_ctrl.wrQLenPdf::55                       0                       # What write queue length does an incoming req see
system.mem_ctrl.wrQLenPdf::56                       0                       # What write queue length does an incoming req see
system.mem_ctrl.wrQLenPdf::57                       0                       # What write queue length does an incoming req see
system.mem_ctrl.wrQLenPdf::58                       0                       # What write queue length does an incoming req see
system.mem_ctrl.wrQLenPdf::59                       0                       # What write queue length does an incoming req see
system.mem_ctrl.wrQLenPdf::60                       0                       # What write queue length does an incoming req see
system.mem_ctrl.wrQLenPdf::61                       0                       # What write queue length does an incoming req see
system.mem_ctrl.wrQLenPdf::62                       0                       # What write queue length does an incoming req see
system.mem_ctrl.wrQLenPdf::63                       0                       # What write queue length does an incoming req see
system.mem_ctrl.bytesPerActivate::samples       964288                       # Bytes accessed per row activation
system.mem_ctrl.bytesPerActivate::mean     862.228114                       # Bytes accessed per row activation
system.mem_ctrl.bytesPerActivate::gmean    737.653806                       # Bytes accessed per row activation
system.mem_ctrl.bytesPerActivate::stdev    310.009634                       # Bytes accessed per row activation
system.mem_ctrl.bytesPerActivate::0-127         41242      4.28%      4.28% # Bytes accessed per row activation
system.mem_ctrl.bytesPerActivate::128-255        36198      3.75%      8.03% # Bytes accessed per row activation
system.mem_ctrl.bytesPerActivate::256-383        62323      6.46%     14.49% # Bytes accessed per row activation
system.mem_ctrl.bytesPerActivate::384-511        18366      1.90%     16.40% # Bytes accessed per row activation
system.mem_ctrl.bytesPerActivate::512-639        28804      2.99%     19.39% # Bytes accessed per row activation
system.mem_ctrl.bytesPerActivate::640-767        24358      2.53%     21.91% # Bytes accessed per row activation
system.mem_ctrl.bytesPerActivate::768-895        16318      1.69%     23.60% # Bytes accessed per row activation
system.mem_ctrl.bytesPerActivate::896-1023        13105      1.36%     24.96% # Bytes accessed per row activation
system.mem_ctrl.bytesPerActivate::1024-1151       723574     75.04%    100.00% # Bytes accessed per row activation
system.mem_ctrl.bytesPerActivate::total        964288                       # Bytes accessed per row activation
system.mem_ctrl.rdPerTurnAround::samples          561                       # Reads before turning the bus around for writes
system.mem_ctrl.rdPerTurnAround::mean     2954.301248                       # Reads before turning the bus around for writes
system.mem_ctrl.rdPerTurnAround::gmean    2158.539383                       # Reads before turning the bus around for writes
system.mem_ctrl.rdPerTurnAround::stdev    2746.411041                       # Reads before turning the bus around for writes
system.mem_ctrl.rdPerTurnAround::0-1023            78     13.90%     13.90% # Reads before turning the bus around for writes
system.mem_ctrl.rdPerTurnAround::1024-2047          192     34.22%     48.13% # Reads before turning the bus around for writes
system.mem_ctrl.rdPerTurnAround::2048-3071          114     20.32%     68.45% # Reads before turning the bus around for writes
system.mem_ctrl.rdPerTurnAround::3072-4095           71     12.66%     81.11% # Reads before turning the bus around for writes
system.mem_ctrl.rdPerTurnAround::4096-5119           38      6.77%     87.88% # Reads before turning the bus around for writes
system.mem_ctrl.rdPerTurnAround::5120-6143           20      3.57%     91.44% # Reads before turning the bus around for writes
system.mem_ctrl.rdPerTurnAround::6144-7167           11      1.96%     93.40% # Reads before turning the bus around for writes
system.mem_ctrl.rdPerTurnAround::7168-8191           10      1.78%     95.19% # Reads before turning the bus around for writes
system.mem_ctrl.rdPerTurnAround::8192-9215            4      0.71%     95.90% # Reads before turning the bus around for writes
system.mem_ctrl.rdPerTurnAround::9216-10239            3      0.53%     96.43% # Reads before turning the bus around for writes
system.mem_ctrl.rdPerTurnAround::10240-11263            2      0.36%     96.79% # Reads before turning the bus around for writes
system.mem_ctrl.rdPerTurnAround::11264-12287            4      0.71%     97.50% # Reads before turning the bus around for writes
system.mem_ctrl.rdPerTurnAround::12288-13311            3      0.53%     98.04% # Reads before turning the bus around for writes
system.mem_ctrl.rdPerTurnAround::13312-14335            3      0.53%     98.57% # Reads before turning the bus around for writes
system.mem_ctrl.rdPerTurnAround::14336-15359            2      0.36%     98.93% # Reads before turning the bus around for writes
system.mem_ctrl.rdPerTurnAround::15360-16383            4      0.71%     99.64% # Reads before turning the bus around for writes
system.mem_ctrl.rdPerTurnAround::16384-17407            1      0.18%     99.82% # Reads before turning the bus around for writes
system.mem_ctrl.rdPerTurnAround::18432-19455            1      0.18%    100.00% # Reads before turning the bus around for writes
system.mem_ctrl.rdPerTurnAround::total            561                       # Reads before turning the bus around for writes
system.mem_ctrl.wrPerTurnAround::samples          561                       # Writes before turning the bus around for reads
system.mem_ctrl.wrPerTurnAround::mean       16.007130                       # Writes before turning the bus around for reads
system.mem_ctrl.wrPerTurnAround::gmean      16.006720                       # Writes before turning the bus around for reads
system.mem_ctrl.wrPerTurnAround::stdev       0.119310                       # Writes before turning the bus around for reads
system.mem_ctrl.wrPerTurnAround::16               559     99.64%     99.64% # Writes before turning the bus around for reads
system.mem_ctrl.wrPerTurnAround::18                 2      0.36%    100.00% # Writes before turning the bus around for reads
system.mem_ctrl.wrPerTurnAround::total            561                       # Writes before turning the bus around for reads
system.mem_ctrl.bytesReadDRAM               830861568                       # Total number of bytes read from DRAM
system.mem_ctrl.bytesReadWrQ                  1912384                       # Total number of bytes read from write queue
system.mem_ctrl.bytesWritten                   574720                       # Total number of bytes written to DRAM
system.mem_ctrl.bytesReadSys                104464806                       # Total read bytes from the system interface side
system.mem_ctrl.bytesWrittenSys               1092057                       # Total written bytes from the system interface side
system.mem_ctrl.avgRdBW                       1210.39                       # Average DRAM read bandwidth in MiByte/s
system.mem_ctrl.avgWrBW                          0.84                       # Average achieved write bandwidth in MiByte/s
system.mem_ctrl.avgRdBWSys                     152.18                       # Average system read bandwidth in MiByte/s
system.mem_ctrl.avgWrBWSys                       1.59                       # Average system write bandwidth in MiByte/s
system.mem_ctrl.peakBW                       12800.00                       # Theoretical peak bandwidth in MiByte/s
system.mem_ctrl.busUtil                          9.46                       # Data bus utilization in percentage
system.mem_ctrl.busUtilRead                      9.46                       # Data bus utilization in percentage for reads
system.mem_ctrl.busUtilWrite                     0.01                       # Data bus utilization in percentage for writes
system.mem_ctrl.totGap                   686439277000                       # Total gap between requests
system.mem_ctrl.avgGap                       52136.05                       # Average gap between requests
system.mem_ctrl.masterReadBytes::.cpu.inst    102203336                       # Per-master bytes read from memory
system.mem_ctrl.masterReadBytes::.cpu.data      2059188                       # Per-master bytes read from memory
system.mem_ctrl.masterWriteBytes::.cpu.data        63205                       # Per-master bytes write to memory
system.mem_ctrl.masterReadRate::.cpu.inst 148889097.637604266405                       # Per-master bytes read from memory rate (Bytes/sec)
system.mem_ctrl.masterReadRate::.cpu.data 2999810.526597518008                       # Per-master bytes read from memory rate (Bytes/sec)
system.mem_ctrl.masterWriteRate::.cpu.data 92076.597344970985                       # Per-master bytes write to memory rate (Bytes/sec)
system.mem_ctrl.masterReadAccesses::.cpu.inst     12775417                       # Per-master read serviced memory accesses
system.mem_ctrl.masterReadAccesses::.cpu.data       236676                       # Per-master read serviced memory accesses
system.mem_ctrl.masterWriteAccesses::.cpu.data       154214                       # Per-master write serviced memory accesses
system.mem_ctrl.masterReadTotalLat::.cpu.inst 274116745750                       # Per-master read total memory access latency
system.mem_ctrl.masterReadTotalLat::.cpu.data   5253114250                       # Per-master read total memory access latency
system.mem_ctrl.masterWriteTotalLat::.cpu.data 2407749503000                       # Per-master write total memory access latency
system.mem_ctrl.masterReadAvgLat::.cpu.inst     21456.58                       # Per-master read average memory access latency
system.mem_ctrl.masterReadAvgLat::.cpu.data     22195.38                       # Per-master read average memory access latency
system.mem_ctrl.masterWriteAvgLat::.cpu.data  15613040.99                       # Per-master write average memory access latency
system.mem_ctrl.pageHitRate                     92.58                       # Row buffer hit rate, read and write combined
system.mem_ctrl.rank1.actEnergy            1054149600                       # Energy for activate commands per rank (pJ)
system.mem_ctrl.rank1.preEnergy             560293800                       # Energy for precharge commands per rank (pJ)
system.mem_ctrl.rank1.readEnergy          11724115620                       # Energy for read commands per rank (pJ)
system.mem_ctrl.rank1.writeEnergy            23980680                       # Energy for write commands per rank (pJ)
system.mem_ctrl.rank1.refreshEnergy      54186662400.000008                       # Energy for refresh commands per rank (pJ)
system.mem_ctrl.rank1.actBackEnergy       74250631620                       # Energy for active background per rank (pJ)
system.mem_ctrl.rank1.preBackEnergy      201065864640                       # Energy for precharge background per rank (pJ)
system.mem_ctrl.rank1.actPowerDownEnergy            0                       # Energy for active power-down per rank (pJ)
system.mem_ctrl.rank1.prePowerDownEnergy            0                       # Energy for precharge power-down per rank (pJ)
system.mem_ctrl.rank1.selfRefreshEnergy             0                       # Energy for self refresh per rank (pJ)
system.mem_ctrl.rank1.totalEnergy        342865698360                       # Total energy per rank (pJ)
system.mem_ctrl.rank1.averagePower         499.484326                       # Core power per rank (mW)
system.mem_ctrl.rank1.totalIdleTime                 0                       # Total Idle time Per DRAM Rank
system.mem_ctrl.rank1.memoryStateTime::IDLE 521822579000                       # Time in different power states
system.mem_ctrl.rank1.memoryStateTime::REF  22921600000                       # Time in different power states
system.mem_ctrl.rank1.memoryStateTime::SREF            0                       # Time in different power states
system.mem_ctrl.rank1.memoryStateTime::PRE_PDN            0                       # Time in different power states
system.mem_ctrl.rank1.memoryStateTime::ACT 141695175000                       # Time in different power states
system.mem_ctrl.rank1.memoryStateTime::ACT_PDN            0                       # Time in different power states
system.mem_ctrl.rank0.actEnergy            5830873860                       # Energy for activate commands per rank (pJ)
system.mem_ctrl.rank0.preEnergy            3099179160                       # Energy for precharge commands per rank (pJ)
system.mem_ctrl.rank0.readEnergy          80968870920                       # Energy for read commands per rank (pJ)
system.mem_ctrl.rank0.writeEnergy            22894920                       # Energy for write commands per rank (pJ)
system.mem_ctrl.rank0.refreshEnergy      54186662400.000008                       # Energy for refresh commands per rank (pJ)
system.mem_ctrl.rank0.actBackEnergy      293695241130                       # Energy for active background per rank (pJ)
system.mem_ctrl.rank0.preBackEnergy       16270404000                       # Energy for precharge background per rank (pJ)
system.mem_ctrl.rank0.actPowerDownEnergy            0                       # Energy for active power-down per rank (pJ)
system.mem_ctrl.rank0.prePowerDownEnergy            0                       # Energy for precharge power-down per rank (pJ)
system.mem_ctrl.rank0.selfRefreshEnergy             0                       # Energy for self refresh per rank (pJ)
system.mem_ctrl.rank0.totalEnergy        454074126390                       # Total energy per rank (pJ)
system.mem_ctrl.rank0.averagePower         661.491978                       # Core power per rank (mW)
system.mem_ctrl.rank0.totalIdleTime                 0                       # Total Idle time Per DRAM Rank
system.mem_ctrl.rank0.memoryStateTime::IDLE  33911919250                       # Time in different power states
system.mem_ctrl.rank0.memoryStateTime::REF  22921600000                       # Time in different power states
system.mem_ctrl.rank0.memoryStateTime::SREF            0                       # Time in different power states
system.mem_ctrl.rank0.memoryStateTime::PRE_PDN            0                       # Time in different power states
system.mem_ctrl.rank0.memoryStateTime::ACT 629605834750                       # Time in different power states
system.mem_ctrl.rank0.memoryStateTime::ACT_PDN            0                       # Time in different power states
system.mem_ctrl.power_state.pwrStateResidencyTicks::UNDEFINED 686439354000                       # Cumulative time (in ticks) in various power states
system.cache.demand_hits::.cpu.data           2559282                       # number of demand (read+write) hits
system.cache.demand_hits::total               2559282                       # number of demand (read+write) hits
system.cache.overall_hits::.cpu.data          2559282                       # number of overall hits
system.cache.overall_hits::total              2559282                       # number of overall hits
system.cache.demand_misses::.cpu.data           11060                       # number of demand (read+write) misses
system.cache.demand_misses::total               11060                       # number of demand (read+write) misses
system.cache.overall_misses::.cpu.data          11060                       # number of overall misses
system.cache.overall_misses::total              11060                       # number of overall misses
system.cache.demand_miss_latency::.cpu.data    771624000                       # number of demand (read+write) miss cycles
system.cache.demand_miss_latency::total     771624000                       # number of demand (read+write) miss cycles
system.cache.overall_miss_latency::.cpu.data    771624000                       # number of overall miss cycles
system.cache.overall_miss_latency::total    771624000                       # number of overall miss cycles
system.cache.demand_accesses::.cpu.data       2570342                       # number of demand (read+write) accesses
system.cache.demand_accesses::total           2570342                       # number of demand (read+write) accesses
system.cache.overall_accesses::.cpu.data      2570342                       # number of overall (read+write) accesses
system.cache.overall_accesses::total          2570342                       # number of overall (read+write) accesses
system.cache.demand_miss_rate::.cpu.data     0.004303                       # miss rate for demand accesses
system.cache.demand_miss_rate::total         0.004303                       # miss rate for demand accesses
system.cache.overall_miss_rate::.cpu.data     0.004303                       # miss rate for overall accesses
system.cache.overall_miss_rate::total        0.004303                       # miss rate for overall accesses
system.cache.demand_avg_miss_latency::.cpu.data 69767.088608                       # average overall miss latency
system.cache.demand_avg_miss_latency::total 69767.088608                       # average overall miss latency
system.cache.overall_avg_miss_latency::.cpu.data 69767.088608                       # average overall miss latency
system.cache.overall_avg_miss_latency::total 69767.088608                       # average overall miss latency
system.cache.blocked_cycles::no_mshrs               0                       # number of cycles access was blocked
system.cache.blocked_cycles::no_targets             0                       # number of cycles access was blocked
system.cache.blocked::no_mshrs                      0                       # number of cycles access was blocked
system.cache.blocked::no_targets                    0                       # number of cycles access was blocked
system.cache.avg_blocked_cycles::no_mshrs          nan                       # average number of cycles each access was blocked
system.cache.avg_blocked_cycles::no_targets          nan                       # average number of cycles each access was blocked
system.cache.demand_mshr_misses::.cpu.data        11060                       # number of demand (read+write) MSHR misses
system.cache.demand_mshr_misses::total          11060                       # number of demand (read+write) MSHR misses
system.cache.overall_mshr_misses::.cpu.data        11060                       # number of overall MSHR misses
system.cache.overall_mshr_misses::total         11060                       # number of overall MSHR misses
system.cache.demand_mshr_miss_latency::.cpu.data    749504000                       # number of demand (read+write) MSHR miss cycles
system.cache.demand_mshr_miss_latency::total    749504000                       # number of demand (read+write) MSHR miss cycles
system.cache.overall_mshr_miss_latency::.cpu.data    749504000                       # number of overall MSHR miss cycles
system.cache.overall_mshr_miss_latency::total    749504000                       # number of overall MSHR miss cycles
system.cache.demand_mshr_miss_rate::.cpu.data     0.004303                       # mshr miss rate for demand accesses
system.cache.demand_mshr_miss_rate::total     0.004303                       # mshr miss rate for demand accesses
system.cache.overall_mshr_miss_rate::.cpu.data     0.004303                       # mshr miss rate for overall accesses
system.cache.overall_mshr_miss_rate::total     0.004303                       # mshr miss rate for overall accesses
system.cache.demand_avg_mshr_miss_latency::.cpu.data 67767.088608                       # average overall mshr miss latency
system.cache.demand_avg_mshr_miss_latency::total 67767.088608                       # average overall mshr miss latency
system.cache.overall_avg_mshr_miss_latency::.cpu.data 67767.088608                       # average overall mshr miss latency
system.cache.overall_avg_mshr_miss_latency::total 67767.088608                       # average overall mshr miss latency
system.cache.replacements                           0                       # number of replacements
system.cache.ReadReq_hits::.cpu.data          1655713                       # number of ReadReq hits
system.cache.ReadReq_hits::total              1655713                       # number of ReadReq hits
system.cache.ReadReq_misses::.cpu.data           7412                       # number of ReadReq misses
system.cache.ReadReq_misses::total               7412                       # number of ReadReq misses
system.cache.ReadReq_miss_latency::.cpu.data    513912000                       # number of ReadReq miss cycles
system.cache.ReadReq_miss_latency::total    513912000                       # number of ReadReq miss cycles
system.cache.ReadReq_accesses::.cpu.data      1663125                       # number of ReadReq accesses(hits+misses)
system.cache.ReadReq_accesses::total          1663125                       # number of ReadReq accesses(hits+misses)
system.cache.ReadReq_miss_rate::.cpu.data     0.004457                       # miss rate for ReadReq accesses
system.cache.ReadReq_miss_rate::total        0.004457                       # miss rate for ReadReq accesses
system.cache.ReadReq_avg_miss_latency::.cpu.data 69335.132218                       # average ReadReq miss latency
system.cache.ReadReq_avg_miss_latency::total 69335.132218                       # average ReadReq miss latency
system.cache.ReadReq_mshr_misses::.cpu.data         7412                       # number of ReadReq MSHR misses
system.cache.ReadReq_mshr_misses::total          7412                       # number of ReadReq MSHR misses
system.cache.ReadReq_mshr_miss_latency::.cpu.data    499088000                       # number of ReadReq MSHR miss cycles
system.cache.ReadReq_mshr_miss_latency::total    499088000                       # number of ReadReq MSHR miss cycles
system.cache.ReadReq_mshr_miss_rate::.cpu.data     0.004457                       # mshr miss rate for ReadReq accesses
system.cache.ReadReq_mshr_miss_rate::total     0.004457                       # mshr miss rate for ReadReq accesses
system.cache.ReadReq_avg_mshr_miss_latency::.cpu.data 67335.132218                       # average ReadReq mshr miss latency
system.cache.ReadReq_avg_mshr_miss_latency::total 67335.132218                       # average ReadReq mshr miss latency
system.cache.WriteReq_hits::.cpu.data          903569                       # number of WriteReq hits
system.cache.WriteReq_hits::total              903569                       # number of WriteReq hits
system.cache.WriteReq_misses::.cpu.data          3648                       # number of WriteReq misses
system.cache.WriteReq_misses::total              3648                       # number of WriteReq misses
system.cache.WriteReq_miss_latency::.cpu.data    257712000                       # number of WriteReq miss cycles
system.cache.WriteReq_miss_latency::total    257712000                       # number of WriteReq miss cycles
system.cache.WriteReq_accesses::.cpu.data       907217                       # number of WriteReq accesses(hits+misses)
system.cache.WriteReq_accesses::total          907217                       # number of WriteReq accesses(hits+misses)
system.cache.WriteReq_miss_rate::.cpu.data     0.004021                       # miss rate for WriteReq accesses
system.cache.WriteReq_miss_rate::total       0.004021                       # miss rate for WriteReq accesses
system.cache.WriteReq_avg_miss_latency::.cpu.data 70644.736842                       # average WriteReq miss latency
system.cache.WriteReq_avg_miss_latency::total 70644.736842                       # average WriteReq miss latency
system.cache.WriteReq_mshr_misses::.cpu.data         3648                       # number of WriteReq MSHR misses
system.cache.WriteReq_mshr_misses::total         3648                       # number of WriteReq MSHR misses
system.cache.WriteReq_mshr_miss_latency::.cpu.data    250416000                       # number of WriteReq MSHR miss cycles
system.cache.WriteReq_mshr_miss_latency::total    250416000                       # number of WriteReq MSHR miss cycles
system.cache.WriteReq_mshr_miss_rate::.cpu.data     0.004021                       # mshr miss rate for WriteReq accesses
system.cache.WriteReq_mshr_miss_rate::total     0.004021                       # mshr miss rate for WriteReq accesses
system.cache.WriteReq_avg_mshr_miss_latency::.cpu.data 68644.736842                       # average WriteReq mshr miss latency
system.cache.WriteReq_avg_mshr_miss_latency::total 68644.736842                       # average WriteReq mshr miss latency
system.cache.power_state.pwrStateResidencyTicks::UNDEFINED 686439354000                       # Cumulative time (in ticks) in various power states
system.cache.tags.tagsinuse               7975.236474                       # Cycle average of tags in use
system.cache.tags.total_refs                  2570342                       # Total number of references to valid blocks.
system.cache.tags.sampled_refs                  11060                       # Sample count of references to valid blocks.
system.cache.tags.avg_refs                 232.399819                       # Average number of references to valid blocks.
system.cache.tags.warmup_cycle            91414414000                       # Cycle when the warmup percentage was hit.
system.cache.tags.occ_blocks::.cpu.data   7975.236474                       # Average occupied blocks per requestor
system.cache.tags.occ_percent::.cpu.data     0.243385                       # Average percentage of cache occupancy
system.cache.tags.occ_percent::total         0.243385                       # Average percentage of cache occupancy
system.cache.tags.occ_task_id_blocks::1024        11060                       # Occupied blocks per task id
system.cache.tags.age_task_id_blocks_1024::4        11060                       # Occupied blocks per task id
system.cache.tags.occ_task_id_percent::1024     0.337524                       # Percentage of cache occupancy per task id
system.cache.tags.tag_accesses                2581402                       # Number of tag accesses
system.cache.tags.data_accesses               2581402                       # Number of data accesses
system.cache.tags.power_state.pwrStateResidencyTicks::UNDEFINED 686439354000                       # Cumulative time (in ticks) in various power states
system.clk_domain.clock                          1000                       # Clock period in ticks
system.clk_domain.voltage_domain.voltage            1                       # Voltage in Volts
system.cachebus.trans_dist::ReadReq           1663125                       # Transaction distribution
system.cachebus.trans_dist::ReadResp          1663125                       # Transaction distribution
system.cachebus.trans_dist::WriteReq           907217                       # Transaction distribution
system.cachebus.trans_dist::WriteResp          907217                       # Transaction distribution
system.cachebus.pkt_count_system.memobj.cache_side::system.cache.cpu_side      5140684                       # Packet count per connected master and slave (bytes)
system.cachebus.pkt_size_system.memobj.cache_side::system.cache.cpu_side     18083017                       # Cumulative packet size per connected master and slave (bytes)
system.cachebus.snoops                              0                       # Total snoops (count)
system.cachebus.snoopTraffic                        0                       # Total snoop traffic (bytes)
system.cachebus.snoop_fanout::samples         2570342                       # Request fanout histogram
system.cachebus.snoop_fanout::mean                  0                       # Request fanout histogram
system.cachebus.snoop_fanout::stdev                 0                       # Request fanout histogram
system.cachebus.snoop_fanout::underflows            0      0.00%      0.00% # Request fanout histogram
system.cachebus.snoop_fanout::0               2570342    100.00%    100.00% # Request fanout histogram
system.cachebus.snoop_fanout::overflows             0      0.00%    100.00% # Request fanout histogram
system.cachebus.snoop_fanout::min_value             0                       # Request fanout histogram
system.cachebus.snoop_fanout::max_value             0                       # Request fanout histogram
system.cachebus.snoop_fanout::total           2570342                       # Request fanout histogram
system.cachebus.reqLayer0.occupancy        3477559000                       # Layer occupancy (ticks)
system.cachebus.reqLayer0.utilization             0.5                       # Layer utilization (%)
system.cachebus.respLayer0.occupancy       4233467000                       # Layer occupancy (ticks)
system.cachebus.respLayer0.utilization            0.6                       # Layer utilization (%)
system.cachebus.power_state.pwrStateResidencyTicks::UNDEFINED 686439354000                       # Cumulative time (in ticks) in various power states
system.cpu.dtb.walker.power_state.pwrStateResidencyTicks::UNDEFINED 686439354000                       # Cumulative time (in ticks) in various power states
system.cpu.interrupts.clk_domain.clock          16000                       # Clock period in ticks
system.cpu.itb.walker.power_state.pwrStateResidencyTicks::UNDEFINED 686439354000                       # Cumulative time (in ticks) in various power states
system.cpu.power_state.numTransitions               1                       # Number of power state transitions
system.cpu.power_state.pwrStateResidencyTicks::ON 686439354000                       # Cumulative time (in ticks) in various power states

---------- End Simulation Statistics   ----------
