
---------- Begin Simulation Statistics ----------
final_tick                                 3963868000                       # Number of ticks from beginning of simulation (restored from checkpoints and never reset)
host_inst_rate                                  96087                       # Simulator instruction rate (inst/s)
host_mem_usage                               34288664                       # Number of bytes of host memory used
host_op_rate                                   197983                       # Simulator op (including micro ops) rate (op/s)
host_seconds                                    10.41                       # Real time elapsed on the host
host_tick_rate                              380790068                       # Simulator tick rate (ticks/s)
sim_freq                                 1000000000000                       # Frequency of simulated ticks
sim_insts                                     1000201                       # Number of instructions simulated
sim_ops                                       2060908                       # Number of ops (including micro ops) simulated
sim_seconds                                  0.003964                       # Number of seconds simulated
sim_ticks                                  3963868000                       # Number of ticks simulated
system.cpu.Branches                            239610                       # Number of branches fetched
system.cpu.committedInsts                     1000201                       # Number of instructions committed
system.cpu.committedOps                       2060908                       # Number of ops (including micro ops) committed
system.cpu.dtb.rdAccesses                      201651                       # TLB accesses on read requests
system.cpu.dtb.rdMisses                            74                       # TLB misses on read requests
system.cpu.dtb.wrAccesses                      139464                       # TLB accesses on write requests
system.cpu.dtb.wrMisses                            62                       # TLB misses on write requests
system.cpu.idle_fraction                            0                       # Percentage of idle cycles
system.cpu.itb.rdAccesses                           0                       # TLB accesses on read requests
system.cpu.itb.rdMisses                             0                       # TLB misses on read requests
system.cpu.itb.wrAccesses                     1319845                       # TLB accesses on write requests
system.cpu.itb.wrMisses                           164                       # TLB misses on write requests
system.cpu.not_idle_fraction                        1                       # Percentage of non-idle cycles
system.cpu.numCycles                          3963857                       # number of cpu cycles simulated
system.cpu.numWorkItemsCompleted                    0                       # number of work items this cpu completed
system.cpu.numWorkItemsStarted                      0                       # number of work items this cpu started
system.cpu.num_busy_cycles                    3963857                       # Number of busy cycles
system.cpu.num_cc_register_reads              1493498                       # number of times the CC registers were read
system.cpu.num_cc_register_writes              634819                       # number of times the CC registers were written
system.cpu.num_conditional_control_insts       176827                       # number of instructions that are conditional controls
system.cpu.num_fp_alu_accesses                  81407                       # Number of float alu accesses
system.cpu.num_fp_insts                         81407                       # number of float instructions
system.cpu.num_fp_register_reads               136568                       # number of times the floating registers were read
system.cpu.num_fp_register_writes               69051                       # number of times the floating registers were written
system.cpu.num_func_calls                       43021                       # number of times a function call or return occured
system.cpu.num_idle_cycles                          0                       # Number of idle cycles
system.cpu.num_int_alu_accesses               1990455                       # Number of integer alu accesses
system.cpu.num_int_insts                      1990455                       # number of integer instructions
system.cpu.num_int_register_reads             3845604                       # number of times the integer registers were read
system.cpu.num_int_register_writes            1603940                       # number of times the integer registers were written
system.cpu.num_load_insts                      201373                       # Number of load instructions
system.cpu.num_mem_refs                        340746                       # number of memory refs
system.cpu.num_store_insts                     139373                       # Number of store instructions
system.cpu.num_vec_alu_accesses                     0                       # Number of vector alu accesses
system.cpu.num_vec_insts                            0                       # number of vector instructions
system.cpu.num_vec_register_reads                   0                       # number of times the vector registers were read
system.cpu.num_vec_register_writes                  0                       # number of times the vector registers were written
system.cpu.op_class::No_OpClass                 14342      0.70%      0.70% # Class of executed instruction
system.cpu.op_class::IntAlu                   1643775     79.76%     80.45% # Class of executed instruction
system.cpu.op_class::IntMult                       20      0.00%     80.46% # Class of executed instruction
system.cpu.op_class::IntDiv                        42      0.00%     80.46% # Class of executed instruction
system.cpu.op_class::FloatAdd                    2029      0.10%     80.56% # Class of executed instruction
system.cpu.op_class::FloatCmp                       0      0.00%     80.56% # Class of executed instruction
system.cpu.op_class::FloatCvt                       0      0.00%     80.56% # Class of executed instruction
system.cpu.op_class::FloatMult                      0      0.00%     80.56% # Class of executed instruction
system.cpu.op_class::FloatMultAcc                   0      0.00%     80.56% # Class of executed instruction
system.cpu.op_class::FloatDiv                       0      0.00%     80.56% # Class of executed instruction
system.cpu.op_class::FloatMisc                      0      0.00%     80.56% # Class of executed instruction
system.cpu.op_class::FloatSqrt                      0      0.00%     80.56% # Class of executed instruction
system.cpu.op_class::SimdAdd                       20      0.00%     80.56% # Class of executed instruction
system.cpu.op_class::SimdAddAcc                     0      0.00%     80.56% # Class of executed instruction
system.cpu.op_class::SimdAlu                    20512      1.00%     81.55% # Class of executed instruction
system.cpu.op_class::SimdCmp                      454      0.02%     81.57% # Class of executed instruction
system.cpu.op_class::SimdCvt                    14402      0.70%     82.27% # Class of executed instruction
system.cpu.op_class::SimdMisc                   24566      1.19%     83.47% # Class of executed instruction
system.cpu.op_class::SimdMult                       0      0.00%     83.47% # Class of executed instruction
system.cpu.op_class::SimdMultAcc                    0      0.00%     83.47% # Class of executed instruction
system.cpu.op_class::SimdShift                      0      0.00%     83.47% # Class of executed instruction
system.cpu.op_class::SimdShiftAcc                   0      0.00%     83.47% # Class of executed instruction
system.cpu.op_class::SimdDiv                        0      0.00%     83.47% # Class of executed instruction
system.cpu.op_class::SimdSqrt                       0      0.00%     83.47% # Class of executed instruction
system.cpu.op_class::SimdFloatAdd                   0      0.00%     83.47% # Class of executed instruction
system.cpu.op_class::SimdFloatAlu                   0      0.00%     83.47% # Class of executed instruction
system.cpu.op_class::SimdFloatCmp                   0      0.00%     83.47% # Class of executed instruction
system.cpu.op_class::SimdFloatCvt                   0      0.00%     83.47% # Class of executed instruction
system.cpu.op_class::SimdFloatDiv                  25      0.00%     83.47% # Class of executed instruction
system.cpu.op_class::SimdFloatMisc                  0      0.00%     83.47% # Class of executed instruction
system.cpu.op_class::SimdFloatMult                  0      0.00%     83.47% # Class of executed instruction
system.cpu.op_class::SimdFloatMultAcc               0      0.00%     83.47% # Class of executed instruction
system.cpu.op_class::SimdFloatSqrt                  0      0.00%     83.47% # Class of executed instruction
system.cpu.op_class::SimdReduceAdd                  0      0.00%     83.47% # Class of executed instruction
system.cpu.op_class::SimdReduceAlu                  0      0.00%     83.47% # Class of executed instruction
system.cpu.op_class::SimdReduceCmp                  0      0.00%     83.47% # Class of executed instruction
system.cpu.op_class::SimdFloatReduceAdd             0      0.00%     83.47% # Class of executed instruction
system.cpu.op_class::SimdFloatReduceCmp             0      0.00%     83.47% # Class of executed instruction
system.cpu.op_class::SimdAes                        0      0.00%     83.47% # Class of executed instruction
system.cpu.op_class::SimdAesMix                     0      0.00%     83.47% # Class of executed instruction
system.cpu.op_class::SimdSha1Hash                   0      0.00%     83.47% # Class of executed instruction
system.cpu.op_class::SimdSha1Hash2                  0      0.00%     83.47% # Class of executed instruction
system.cpu.op_class::SimdSha256Hash                 0      0.00%     83.47% # Class of executed instruction
system.cpu.op_class::SimdSha256Hash2                0      0.00%     83.47% # Class of executed instruction
system.cpu.op_class::SimdShaSigma2                  0      0.00%     83.47% # Class of executed instruction
system.cpu.op_class::SimdShaSigma3                  0      0.00%     83.47% # Class of executed instruction
system.cpu.op_class::SimdPredAlu                    0      0.00%     83.47% # Class of executed instruction
system.cpu.op_class::MemRead                   190021      9.22%     92.69% # Class of executed instruction
system.cpu.op_class::MemWrite                  137380      6.67%     99.35% # Class of executed instruction
system.cpu.op_class::FloatMemRead               11352      0.55%     99.90% # Class of executed instruction
system.cpu.op_class::FloatMemWrite               1993      0.10%    100.00% # Class of executed instruction
system.cpu.op_class::IprAccess                      0      0.00%    100.00% # Class of executed instruction
system.cpu.op_class::InstPrefetch                   0      0.00%    100.00% # Class of executed instruction
system.cpu.op_class::total                    2060933                       # Class of executed instruction
system.cpu.workload.numSyscalls                    13                       # Number of system calls
system.dynamic_cache.flushTicks                     0                       # Ticks taken to flush
system.dynamic_cache.numFlushes                     0                       # Number of Flushes Taken
system.cache_small.demand_hits::.cpu.inst        10607                       # number of demand (read+write) hits
system.cache_small.demand_hits::.cpu.data         1750                       # number of demand (read+write) hits
system.cache_small.demand_hits::total           12357                       # number of demand (read+write) hits
system.cache_small.overall_hits::.cpu.inst        10607                       # number of overall hits
system.cache_small.overall_hits::.cpu.data         1750                       # number of overall hits
system.cache_small.overall_hits::total          12357                       # number of overall hits
system.cache_small.demand_misses::.cpu.inst         1860                       # number of demand (read+write) misses
system.cache_small.demand_misses::.cpu.data         2230                       # number of demand (read+write) misses
system.cache_small.demand_misses::total          4090                       # number of demand (read+write) misses
system.cache_small.overall_misses::.cpu.inst         1860                       # number of overall misses
system.cache_small.overall_misses::.cpu.data         2230                       # number of overall misses
system.cache_small.overall_misses::total         4090                       # number of overall misses
system.cache_small.demand_miss_latency::.cpu.inst    113232000                       # number of demand (read+write) miss cycles
system.cache_small.demand_miss_latency::.cpu.data    137467000                       # number of demand (read+write) miss cycles
system.cache_small.demand_miss_latency::total    250699000                       # number of demand (read+write) miss cycles
system.cache_small.overall_miss_latency::.cpu.inst    113232000                       # number of overall miss cycles
system.cache_small.overall_miss_latency::.cpu.data    137467000                       # number of overall miss cycles
system.cache_small.overall_miss_latency::total    250699000                       # number of overall miss cycles
system.cache_small.demand_accesses::.cpu.inst        12467                       # number of demand (read+write) accesses
system.cache_small.demand_accesses::.cpu.data         3980                       # number of demand (read+write) accesses
system.cache_small.demand_accesses::total        16447                       # number of demand (read+write) accesses
system.cache_small.overall_accesses::.cpu.inst        12467                       # number of overall (read+write) accesses
system.cache_small.overall_accesses::.cpu.data         3980                       # number of overall (read+write) accesses
system.cache_small.overall_accesses::total        16447                       # number of overall (read+write) accesses
system.cache_small.demand_miss_rate::.cpu.inst     0.149194                       # miss rate for demand accesses
system.cache_small.demand_miss_rate::.cpu.data     0.560302                       # miss rate for demand accesses
system.cache_small.demand_miss_rate::total     0.248678                       # miss rate for demand accesses
system.cache_small.overall_miss_rate::.cpu.inst     0.149194                       # miss rate for overall accesses
system.cache_small.overall_miss_rate::.cpu.data     0.560302                       # miss rate for overall accesses
system.cache_small.overall_miss_rate::total     0.248678                       # miss rate for overall accesses
system.cache_small.demand_avg_miss_latency::.cpu.inst 60877.419355                       # average overall miss latency
system.cache_small.demand_avg_miss_latency::.cpu.data 61644.394619                       # average overall miss latency
system.cache_small.demand_avg_miss_latency::total 61295.599022                       # average overall miss latency
system.cache_small.overall_avg_miss_latency::.cpu.inst 60877.419355                       # average overall miss latency
system.cache_small.overall_avg_miss_latency::.cpu.data 61644.394619                       # average overall miss latency
system.cache_small.overall_avg_miss_latency::total 61295.599022                       # average overall miss latency
system.cache_small.blocked_cycles::no_mshrs            0                       # number of cycles access was blocked
system.cache_small.blocked_cycles::no_targets            0                       # number of cycles access was blocked
system.cache_small.blocked::no_mshrs                0                       # number of cycles access was blocked
system.cache_small.blocked::no_targets              0                       # number of cycles access was blocked
system.cache_small.avg_blocked_cycles::no_mshrs          nan                       # average number of cycles each access was blocked
system.cache_small.avg_blocked_cycles::no_targets          nan                       # average number of cycles each access was blocked
system.cache_small.writebacks::.writebacks           57                       # number of writebacks
system.cache_small.writebacks::total               57                       # number of writebacks
system.cache_small.demand_mshr_misses::.cpu.inst         1860                       # number of demand (read+write) MSHR misses
system.cache_small.demand_mshr_misses::.cpu.data         2230                       # number of demand (read+write) MSHR misses
system.cache_small.demand_mshr_misses::total         4090                       # number of demand (read+write) MSHR misses
system.cache_small.overall_mshr_misses::.cpu.inst         1860                       # number of overall MSHR misses
system.cache_small.overall_mshr_misses::.cpu.data         2230                       # number of overall MSHR misses
system.cache_small.overall_mshr_misses::total         4090                       # number of overall MSHR misses
system.cache_small.demand_mshr_miss_latency::.cpu.inst    109512000                       # number of demand (read+write) MSHR miss cycles
system.cache_small.demand_mshr_miss_latency::.cpu.data    133007000                       # number of demand (read+write) MSHR miss cycles
system.cache_small.demand_mshr_miss_latency::total    242519000                       # number of demand (read+write) MSHR miss cycles
system.cache_small.overall_mshr_miss_latency::.cpu.inst    109512000                       # number of overall MSHR miss cycles
system.cache_small.overall_mshr_miss_latency::.cpu.data    133007000                       # number of overall MSHR miss cycles
system.cache_small.overall_mshr_miss_latency::total    242519000                       # number of overall MSHR miss cycles
system.cache_small.demand_mshr_miss_rate::.cpu.inst     0.149194                       # mshr miss rate for demand accesses
system.cache_small.demand_mshr_miss_rate::.cpu.data     0.560302                       # mshr miss rate for demand accesses
system.cache_small.demand_mshr_miss_rate::total     0.248678                       # mshr miss rate for demand accesses
system.cache_small.overall_mshr_miss_rate::.cpu.inst     0.149194                       # mshr miss rate for overall accesses
system.cache_small.overall_mshr_miss_rate::.cpu.data     0.560302                       # mshr miss rate for overall accesses
system.cache_small.overall_mshr_miss_rate::total     0.248678                       # mshr miss rate for overall accesses
system.cache_small.demand_avg_mshr_miss_latency::.cpu.inst 58877.419355                       # average overall mshr miss latency
system.cache_small.demand_avg_mshr_miss_latency::.cpu.data 59644.394619                       # average overall mshr miss latency
system.cache_small.demand_avg_mshr_miss_latency::total 59295.599022                       # average overall mshr miss latency
system.cache_small.overall_avg_mshr_miss_latency::.cpu.inst 58877.419355                       # average overall mshr miss latency
system.cache_small.overall_avg_mshr_miss_latency::.cpu.data 59644.394619                       # average overall mshr miss latency
system.cache_small.overall_avg_mshr_miss_latency::total 59295.599022                       # average overall mshr miss latency
system.cache_small.replacements                   206                       # number of replacements
system.cache_small.ReadReq_hits::.cpu.inst        10607                       # number of ReadReq hits
system.cache_small.ReadReq_hits::.cpu.data         1750                       # number of ReadReq hits
system.cache_small.ReadReq_hits::total          12357                       # number of ReadReq hits
system.cache_small.ReadReq_misses::.cpu.inst         1860                       # number of ReadReq misses
system.cache_small.ReadReq_misses::.cpu.data         2230                       # number of ReadReq misses
system.cache_small.ReadReq_misses::total         4090                       # number of ReadReq misses
system.cache_small.ReadReq_miss_latency::.cpu.inst    113232000                       # number of ReadReq miss cycles
system.cache_small.ReadReq_miss_latency::.cpu.data    137467000                       # number of ReadReq miss cycles
system.cache_small.ReadReq_miss_latency::total    250699000                       # number of ReadReq miss cycles
system.cache_small.ReadReq_accesses::.cpu.inst        12467                       # number of ReadReq accesses(hits+misses)
system.cache_small.ReadReq_accesses::.cpu.data         3980                       # number of ReadReq accesses(hits+misses)
system.cache_small.ReadReq_accesses::total        16447                       # number of ReadReq accesses(hits+misses)
system.cache_small.ReadReq_miss_rate::.cpu.inst     0.149194                       # miss rate for ReadReq accesses
system.cache_small.ReadReq_miss_rate::.cpu.data     0.560302                       # miss rate for ReadReq accesses
system.cache_small.ReadReq_miss_rate::total     0.248678                       # miss rate for ReadReq accesses
system.cache_small.ReadReq_avg_miss_latency::.cpu.inst 60877.419355                       # average ReadReq miss latency
system.cache_small.ReadReq_avg_miss_latency::.cpu.data 61644.394619                       # average ReadReq miss latency
system.cache_small.ReadReq_avg_miss_latency::total 61295.599022                       # average ReadReq miss latency
system.cache_small.ReadReq_mshr_misses::.cpu.inst         1860                       # number of ReadReq MSHR misses
system.cache_small.ReadReq_mshr_misses::.cpu.data         2230                       # number of ReadReq MSHR misses
system.cache_small.ReadReq_mshr_misses::total         4090                       # number of ReadReq MSHR misses
system.cache_small.ReadReq_mshr_miss_latency::.cpu.inst    109512000                       # number of ReadReq MSHR miss cycles
system.cache_small.ReadReq_mshr_miss_latency::.cpu.data    133007000                       # number of ReadReq MSHR miss cycles
system.cache_small.ReadReq_mshr_miss_latency::total    242519000                       # number of ReadReq MSHR miss cycles
system.cache_small.ReadReq_mshr_miss_rate::.cpu.inst     0.149194                       # mshr miss rate for ReadReq accesses
system.cache_small.ReadReq_mshr_miss_rate::.cpu.data     0.560302                       # mshr miss rate for ReadReq accesses
system.cache_small.ReadReq_mshr_miss_rate::total     0.248678                       # mshr miss rate for ReadReq accesses
system.cache_small.ReadReq_avg_mshr_miss_latency::.cpu.inst 58877.419355                       # average ReadReq mshr miss latency
system.cache_small.ReadReq_avg_mshr_miss_latency::.cpu.data 59644.394619                       # average ReadReq mshr miss latency
system.cache_small.ReadReq_avg_mshr_miss_latency::total 59295.599022                       # average ReadReq mshr miss latency
system.cache_small.WritebackDirty_hits::.writebacks         2948                       # number of WritebackDirty hits
system.cache_small.WritebackDirty_hits::total         2948                       # number of WritebackDirty hits
system.cache_small.WritebackDirty_accesses::.writebacks         2948                       # number of WritebackDirty accesses(hits+misses)
system.cache_small.WritebackDirty_accesses::total         2948                       # number of WritebackDirty accesses(hits+misses)
system.cache_small.power_state.pwrStateResidencyTicks::UNDEFINED   3963868000                       # Cumulative time (in ticks) in various power states
system.cache_small.tags.tagsinuse         2953.414977                       # Cycle average of tags in use
system.cache_small.tags.total_refs                625                       # Total number of references to valid blocks.
system.cache_small.tags.sampled_refs              206                       # Sample count of references to valid blocks.
system.cache_small.tags.avg_refs             3.033981                       # Average number of references to valid blocks.
system.cache_small.tags.warmup_cycle            76000                       # Cycle when the warmup percentage was hit.
system.cache_small.tags.occ_blocks::.writebacks     4.881823                       # Average occupied blocks per requestor
system.cache_small.tags.occ_blocks::.cpu.inst  1427.862141                       # Average occupied blocks per requestor
system.cache_small.tags.occ_blocks::.cpu.data  1520.671013                       # Average occupied blocks per requestor
system.cache_small.tags.occ_percent::.writebacks     0.000149                       # Average percentage of cache occupancy
system.cache_small.tags.occ_percent::.cpu.inst     0.043575                       # Average percentage of cache occupancy
system.cache_small.tags.occ_percent::.cpu.data     0.046407                       # Average percentage of cache occupancy
system.cache_small.tags.occ_percent::total     0.090131                       # Average percentage of cache occupancy
system.cache_small.tags.occ_task_id_blocks::1024         3909                       # Occupied blocks per task id
system.cache_small.tags.age_task_id_blocks_1024::0           13                       # Occupied blocks per task id
system.cache_small.tags.age_task_id_blocks_1024::1           31                       # Occupied blocks per task id
system.cache_small.tags.age_task_id_blocks_1024::2          191                       # Occupied blocks per task id
system.cache_small.tags.age_task_id_blocks_1024::3         3674                       # Occupied blocks per task id
system.cache_small.tags.occ_task_id_percent::1024     0.119293                       # Percentage of cache occupancy per task id
system.cache_small.tags.tag_accesses            23510                       # Number of tag accesses
system.cache_small.tags.data_accesses           23510                       # Number of data accesses
system.cache_small.tags.power_state.pwrStateResidencyTicks::UNDEFINED   3963868000                       # Cumulative time (in ticks) in various power states
system.icache.demand_hits::.cpu.inst          1303766                       # number of demand (read+write) hits
system.icache.demand_hits::total              1303766                       # number of demand (read+write) hits
system.icache.overall_hits::.cpu.inst         1303766                       # number of overall hits
system.icache.overall_hits::total             1303766                       # number of overall hits
system.icache.demand_misses::.cpu.inst          16079                       # number of demand (read+write) misses
system.icache.demand_misses::total              16079                       # number of demand (read+write) misses
system.icache.overall_misses::.cpu.inst         16079                       # number of overall misses
system.icache.overall_misses::total             16079                       # number of overall misses
system.icache.demand_miss_latency::.cpu.inst    400916000                       # number of demand (read+write) miss cycles
system.icache.demand_miss_latency::total    400916000                       # number of demand (read+write) miss cycles
system.icache.overall_miss_latency::.cpu.inst    400916000                       # number of overall miss cycles
system.icache.overall_miss_latency::total    400916000                       # number of overall miss cycles
system.icache.demand_accesses::.cpu.inst      1319845                       # number of demand (read+write) accesses
system.icache.demand_accesses::total          1319845                       # number of demand (read+write) accesses
system.icache.overall_accesses::.cpu.inst      1319845                       # number of overall (read+write) accesses
system.icache.overall_accesses::total         1319845                       # number of overall (read+write) accesses
system.icache.demand_miss_rate::.cpu.inst     0.012182                       # miss rate for demand accesses
system.icache.demand_miss_rate::total        0.012182                       # miss rate for demand accesses
system.icache.overall_miss_rate::.cpu.inst     0.012182                       # miss rate for overall accesses
system.icache.overall_miss_rate::total       0.012182                       # miss rate for overall accesses
system.icache.demand_avg_miss_latency::.cpu.inst 24934.137695                       # average overall miss latency
system.icache.demand_avg_miss_latency::total 24934.137695                       # average overall miss latency
system.icache.overall_avg_miss_latency::.cpu.inst 24934.137695                       # average overall miss latency
system.icache.overall_avg_miss_latency::total 24934.137695                       # average overall miss latency
system.icache.blocked_cycles::no_mshrs              0                       # number of cycles access was blocked
system.icache.blocked_cycles::no_targets            0                       # number of cycles access was blocked
system.icache.blocked::no_mshrs                     0                       # number of cycles access was blocked
system.icache.blocked::no_targets                   0                       # number of cycles access was blocked
system.icache.avg_blocked_cycles::no_mshrs          nan                       # average number of cycles each access was blocked
system.icache.avg_blocked_cycles::no_targets          nan                       # average number of cycles each access was blocked
system.icache.demand_mshr_misses::.cpu.inst        16079                       # number of demand (read+write) MSHR misses
system.icache.demand_mshr_misses::total         16079                       # number of demand (read+write) MSHR misses
system.icache.overall_mshr_misses::.cpu.inst        16079                       # number of overall MSHR misses
system.icache.overall_mshr_misses::total        16079                       # number of overall MSHR misses
system.icache.demand_mshr_miss_latency::.cpu.inst    368760000                       # number of demand (read+write) MSHR miss cycles
system.icache.demand_mshr_miss_latency::total    368760000                       # number of demand (read+write) MSHR miss cycles
system.icache.overall_mshr_miss_latency::.cpu.inst    368760000                       # number of overall MSHR miss cycles
system.icache.overall_mshr_miss_latency::total    368760000                       # number of overall MSHR miss cycles
system.icache.demand_mshr_miss_rate::.cpu.inst     0.012182                       # mshr miss rate for demand accesses
system.icache.demand_mshr_miss_rate::total     0.012182                       # mshr miss rate for demand accesses
system.icache.overall_mshr_miss_rate::.cpu.inst     0.012182                       # mshr miss rate for overall accesses
system.icache.overall_mshr_miss_rate::total     0.012182                       # mshr miss rate for overall accesses
system.icache.demand_avg_mshr_miss_latency::.cpu.inst 22934.262081                       # average overall mshr miss latency
system.icache.demand_avg_mshr_miss_latency::total 22934.262081                       # average overall mshr miss latency
system.icache.overall_avg_mshr_miss_latency::.cpu.inst 22934.262081                       # average overall mshr miss latency
system.icache.overall_avg_mshr_miss_latency::total 22934.262081                       # average overall mshr miss latency
system.icache.replacements                      15822                       # number of replacements
system.icache.ReadReq_hits::.cpu.inst         1303766                       # number of ReadReq hits
system.icache.ReadReq_hits::total             1303766                       # number of ReadReq hits
system.icache.ReadReq_misses::.cpu.inst         16079                       # number of ReadReq misses
system.icache.ReadReq_misses::total             16079                       # number of ReadReq misses
system.icache.ReadReq_miss_latency::.cpu.inst    400916000                       # number of ReadReq miss cycles
system.icache.ReadReq_miss_latency::total    400916000                       # number of ReadReq miss cycles
system.icache.ReadReq_accesses::.cpu.inst      1319845                       # number of ReadReq accesses(hits+misses)
system.icache.ReadReq_accesses::total         1319845                       # number of ReadReq accesses(hits+misses)
system.icache.ReadReq_miss_rate::.cpu.inst     0.012182                       # miss rate for ReadReq accesses
system.icache.ReadReq_miss_rate::total       0.012182                       # miss rate for ReadReq accesses
system.icache.ReadReq_avg_miss_latency::.cpu.inst 24934.137695                       # average ReadReq miss latency
system.icache.ReadReq_avg_miss_latency::total 24934.137695                       # average ReadReq miss latency
system.icache.ReadReq_mshr_misses::.cpu.inst        16079                       # number of ReadReq MSHR misses
system.icache.ReadReq_mshr_misses::total        16079                       # number of ReadReq MSHR misses
system.icache.ReadReq_mshr_miss_latency::.cpu.inst    368760000                       # number of ReadReq MSHR miss cycles
system.icache.ReadReq_mshr_miss_latency::total    368760000                       # number of ReadReq MSHR miss cycles
system.icache.ReadReq_mshr_miss_rate::.cpu.inst     0.012182                       # mshr miss rate for ReadReq accesses
system.icache.ReadReq_mshr_miss_rate::total     0.012182                       # mshr miss rate for ReadReq accesses
system.icache.ReadReq_avg_mshr_miss_latency::.cpu.inst 22934.262081                       # average ReadReq mshr miss latency
system.icache.ReadReq_avg_mshr_miss_latency::total 22934.262081                       # average ReadReq mshr miss latency
system.icache.power_state.pwrStateResidencyTicks::UNDEFINED   3963868000                       # Cumulative time (in ticks) in various power states
system.icache.tags.tagsinuse               251.437623                       # Cycle average of tags in use
system.icache.tags.total_refs                 1117186                       # Total number of references to valid blocks.
system.icache.tags.sampled_refs                 15822                       # Sample count of references to valid blocks.
system.icache.tags.avg_refs                 70.609657                       # Average number of references to valid blocks.
system.icache.tags.warmup_cycle                 82000                       # Cycle when the warmup percentage was hit.
system.icache.tags.occ_blocks::.cpu.inst   251.437623                       # Average occupied blocks per requestor
system.icache.tags.occ_percent::.cpu.inst     0.982178                       # Average percentage of cache occupancy
system.icache.tags.occ_percent::total        0.982178                       # Average percentage of cache occupancy
system.icache.tags.occ_task_id_blocks::1024          256                       # Occupied blocks per task id
system.icache.tags.age_task_id_blocks_1024::0           46                       # Occupied blocks per task id
system.icache.tags.age_task_id_blocks_1024::1           26                       # Occupied blocks per task id
system.icache.tags.age_task_id_blocks_1024::2           39                       # Occupied blocks per task id
system.icache.tags.age_task_id_blocks_1024::3          145                       # Occupied blocks per task id
system.icache.tags.occ_task_id_percent::1024            1                       # Percentage of cache occupancy per task id
system.icache.tags.tag_accesses               1335923                       # Number of tag accesses
system.icache.tags.data_accesses              1335923                       # Number of data accesses
system.icache.tags.power_state.pwrStateResidencyTicks::UNDEFINED   3963868000                       # Cumulative time (in ticks) in various power states
system.membus.trans_dist::ReadReq                4090                       # Transaction distribution
system.membus.trans_dist::ReadResp               4090                       # Transaction distribution
system.membus.trans_dist::WritebackDirty           57                       # Transaction distribution
system.membus.pkt_count_system.cache_small.mem_side::system.mem_ctrl.port         8237                       # Packet count per connected master and slave (bytes)
system.membus.pkt_count_system.cache_small.mem_side::total         8237                       # Packet count per connected master and slave (bytes)
system.membus.pkt_count::total                   8237                       # Packet count per connected master and slave (bytes)
system.membus.pkt_size_system.cache_small.mem_side::system.mem_ctrl.port       265408                       # Cumulative packet size per connected master and slave (bytes)
system.membus.pkt_size_system.cache_small.mem_side::total       265408                       # Cumulative packet size per connected master and slave (bytes)
system.membus.pkt_size::total                  265408                       # Cumulative packet size per connected master and slave (bytes)
system.membus.reqLayer2.occupancy             4375000                       # Layer occupancy (ticks)
system.membus.reqLayer2.utilization               0.1                       # Layer utilization (%)
system.membus.respLayer1.occupancy           21844500                       # Layer occupancy (ticks)
system.membus.respLayer1.utilization              0.6                       # Layer utilization (%)
system.membus.power_state.pwrStateResidencyTicks::UNDEFINED   3963868000                       # Cumulative time (in ticks) in various power states
system.mem_ctrl.bytes_read::.cpu.inst          119040                       # Number of bytes read from this memory
system.mem_ctrl.bytes_read::.cpu.data          142720                       # Number of bytes read from this memory
system.mem_ctrl.bytes_read::total              261760                       # Number of bytes read from this memory
system.mem_ctrl.bytes_inst_read::.cpu.inst       119040                       # Number of instructions bytes read from this memory
system.mem_ctrl.bytes_inst_read::total         119040                       # Number of instructions bytes read from this memory
system.mem_ctrl.bytes_written::.writebacks         3648                       # Number of bytes written to this memory
system.mem_ctrl.bytes_written::total             3648                       # Number of bytes written to this memory
system.mem_ctrl.num_reads::.cpu.inst             1860                       # Number of read requests responded to by this memory
system.mem_ctrl.num_reads::.cpu.data             2230                       # Number of read requests responded to by this memory
system.mem_ctrl.num_reads::total                 4090                       # Number of read requests responded to by this memory
system.mem_ctrl.num_writes::.writebacks            57                       # Number of write requests responded to by this memory
system.mem_ctrl.num_writes::total                  57                       # Number of write requests responded to by this memory
system.mem_ctrl.bw_read::.cpu.inst           30031272                       # Total read bandwidth from this memory (bytes/s)
system.mem_ctrl.bw_read::.cpu.data           36005235                       # Total read bandwidth from this memory (bytes/s)
system.mem_ctrl.bw_read::total               66036508                       # Total read bandwidth from this memory (bytes/s)
system.mem_ctrl.bw_inst_read::.cpu.inst      30031272                       # Instruction read bandwidth from this memory (bytes/s)
system.mem_ctrl.bw_inst_read::total          30031272                       # Instruction read bandwidth from this memory (bytes/s)
system.mem_ctrl.bw_write::.writebacks          920313                       # Write bandwidth from this memory (bytes/s)
system.mem_ctrl.bw_write::total                920313                       # Write bandwidth from this memory (bytes/s)
system.mem_ctrl.bw_total::.writebacks          920313                       # Total bandwidth to/from this memory (bytes/s)
system.mem_ctrl.bw_total::.cpu.inst          30031272                       # Total bandwidth to/from this memory (bytes/s)
system.mem_ctrl.bw_total::.cpu.data          36005235                       # Total bandwidth to/from this memory (bytes/s)
system.mem_ctrl.bw_total::total              66956821                       # Total bandwidth to/from this memory (bytes/s)
system.mem_ctrl.avgPriority_.writebacks::samples        57.00                       # Average QoS priority value for accepted requests
system.mem_ctrl.avgPriority_.cpu.inst::samples      1860.00                       # Average QoS priority value for accepted requests
system.mem_ctrl.avgPriority_.cpu.data::samples      2230.00                       # Average QoS priority value for accepted requests
system.mem_ctrl.priorityMinLatency       0.000000018750                       # per QoS priority minimum request to response latency (s)
system.mem_ctrl.priorityMaxLatency       0.003664444500                       # per QoS priority maximum request to response latency (s)
system.mem_ctrl.numReadWriteTurnArounds             2                       # Number of turnarounds from READ to WRITE
system.mem_ctrl.numWriteReadTurnArounds             2                       # Number of turnarounds from WRITE to READ
system.mem_ctrl.numStayReadState                 9254                       # Number of times bus staying in READ state
system.mem_ctrl.numStayWriteState                  32                       # Number of times bus staying in WRITE state
system.mem_ctrl.readReqs                         4090                       # Number of read requests accepted
system.mem_ctrl.writeReqs                          57                       # Number of write requests accepted
system.mem_ctrl.readBursts                       4090                       # Number of DRAM read bursts, including those serviced by the write queue
system.mem_ctrl.writeBursts                        57                       # Number of DRAM write bursts, including those merged in the write queue
system.mem_ctrl.servicedByWrQ                       0                       # Number of DRAM read bursts serviced by the write queue
system.mem_ctrl.mergedWrBursts                      0                       # Number of DRAM write bursts merged with an existing one
system.mem_ctrl.neitherReadNorWriteReqs             0                       # Number of requests that are neither read nor write
system.mem_ctrl.perBankRdBursts::0                305                       # Per bank write bursts
system.mem_ctrl.perBankRdBursts::1                330                       # Per bank write bursts
system.mem_ctrl.perBankRdBursts::2                257                       # Per bank write bursts
system.mem_ctrl.perBankRdBursts::3                 85                       # Per bank write bursts
system.mem_ctrl.perBankRdBursts::4                253                       # Per bank write bursts
system.mem_ctrl.perBankRdBursts::5                304                       # Per bank write bursts
system.mem_ctrl.perBankRdBursts::6                213                       # Per bank write bursts
system.mem_ctrl.perBankRdBursts::7                292                       # Per bank write bursts
system.mem_ctrl.perBankRdBursts::8                173                       # Per bank write bursts
system.mem_ctrl.perBankRdBursts::9                244                       # Per bank write bursts
system.mem_ctrl.perBankRdBursts::10               194                       # Per bank write bursts
system.mem_ctrl.perBankRdBursts::11               346                       # Per bank write bursts
system.mem_ctrl.perBankRdBursts::12               273                       # Per bank write bursts
system.mem_ctrl.perBankRdBursts::13               269                       # Per bank write bursts
system.mem_ctrl.perBankRdBursts::14               254                       # Per bank write bursts
system.mem_ctrl.perBankRdBursts::15               298                       # Per bank write bursts
system.mem_ctrl.perBankWrBursts::0                  0                       # Per bank write bursts
system.mem_ctrl.perBankWrBursts::1                  0                       # Per bank write bursts
system.mem_ctrl.perBankWrBursts::2                  0                       # Per bank write bursts
system.mem_ctrl.perBankWrBursts::3                  0                       # Per bank write bursts
system.mem_ctrl.perBankWrBursts::4                  0                       # Per bank write bursts
system.mem_ctrl.perBankWrBursts::5                  2                       # Per bank write bursts
system.mem_ctrl.perBankWrBursts::6                  0                       # Per bank write bursts
system.mem_ctrl.perBankWrBursts::7                  0                       # Per bank write bursts
system.mem_ctrl.perBankWrBursts::8                  0                       # Per bank write bursts
system.mem_ctrl.perBankWrBursts::9                  0                       # Per bank write bursts
system.mem_ctrl.perBankWrBursts::10                 0                       # Per bank write bursts
system.mem_ctrl.perBankWrBursts::11                27                       # Per bank write bursts
system.mem_ctrl.perBankWrBursts::12                 5                       # Per bank write bursts
system.mem_ctrl.perBankWrBursts::13                 0                       # Per bank write bursts
system.mem_ctrl.perBankWrBursts::14                 0                       # Per bank write bursts
system.mem_ctrl.perBankWrBursts::15                 0                       # Per bank write bursts
system.mem_ctrl.avgRdQLen                        1.00                       # Average read queue length when enqueuing
system.mem_ctrl.avgWrQLen                       12.29                       # Average write queue length when enqueuing
system.mem_ctrl.totQLat                      37647000                       # Total ticks spent queuing
system.mem_ctrl.totBusLat                    20450000                       # Total ticks spent in databus transfers
system.mem_ctrl.totMemAccLat                114334500                       # Total ticks spent from burst creation until serviced by the DRAM
system.mem_ctrl.avgQLat                       9204.65                       # Average queueing delay per DRAM burst
system.mem_ctrl.avgBusLat                     5000.00                       # Average bus latency per DRAM burst
system.mem_ctrl.avgMemAccLat                 27954.65                       # Average memory access latency per DRAM burst
system.mem_ctrl.numRdRetry                          0                       # Number of times read queue was full causing retry
system.mem_ctrl.numWrRetry                          0                       # Number of times write queue was full causing retry
system.mem_ctrl.readRowHits                      2697                       # Number of row buffer hits during reads
system.mem_ctrl.writeRowHits                       29                       # Number of row buffer hits during writes
system.mem_ctrl.readRowHitRate                  65.94                       # Row buffer hit rate for reads
system.mem_ctrl.writeRowHitRate                 50.88                       # Row buffer hit rate for writes
system.mem_ctrl.readPktSize::0                      0                       # Read request sizes (log2)
system.mem_ctrl.readPktSize::1                      0                       # Read request sizes (log2)
system.mem_ctrl.readPktSize::2                      0                       # Read request sizes (log2)
system.mem_ctrl.readPktSize::3                      0                       # Read request sizes (log2)
system.mem_ctrl.readPktSize::4                      0                       # Read request sizes (log2)
system.mem_ctrl.readPktSize::5                      0                       # Read request sizes (log2)
system.mem_ctrl.readPktSize::6                   4090                       # Read request sizes (log2)
system.mem_ctrl.writePktSize::0                     0                       # Write request sizes (log2)
system.mem_ctrl.writePktSize::1                     0                       # Write request sizes (log2)
system.mem_ctrl.writePktSize::2                     0                       # Write request sizes (log2)
system.mem_ctrl.writePktSize::3                     0                       # Write request sizes (log2)
system.mem_ctrl.writePktSize::4                     0                       # Write request sizes (log2)
system.mem_ctrl.writePktSize::5                     0                       # Write request sizes (log2)
system.mem_ctrl.writePktSize::6                    57                       # Write request sizes (log2)
system.mem_ctrl.rdQLenPdf::0                     4090                       # What read queue length does an incoming req see
system.mem_ctrl.rdQLenPdf::1                        0                       # What read queue length does an incoming req see
system.mem_ctrl.rdQLenPdf::2                        0                       # What read queue length does an incoming req see
system.mem_ctrl.rdQLenPdf::3                        0                       # What read queue length does an incoming req see
system.mem_ctrl.rdQLenPdf::4                        0                       # What read queue length does an incoming req see
system.mem_ctrl.rdQLenPdf::5                        0                       # What read queue length does an incoming req see
system.mem_ctrl.rdQLenPdf::6                        0                       # What read queue length does an incoming req see
system.mem_ctrl.rdQLenPdf::7                        0                       # What read queue length does an incoming req see
system.mem_ctrl.rdQLenPdf::8                        0                       # What read queue length does an incoming req see
system.mem_ctrl.rdQLenPdf::9                        0                       # What read queue length does an incoming req see
system.mem_ctrl.rdQLenPdf::10                       0                       # What read queue length does an incoming req see
system.mem_ctrl.rdQLenPdf::11                       0                       # What read queue length does an incoming req see
system.mem_ctrl.rdQLenPdf::12                       0                       # What read queue length does an incoming req see
system.mem_ctrl.rdQLenPdf::13                       0                       # What read queue length does an incoming req see
system.mem_ctrl.rdQLenPdf::14                       0                       # What read queue length does an incoming req see
system.mem_ctrl.rdQLenPdf::15                       0                       # What read queue length does an incoming req see
system.mem_ctrl.rdQLenPdf::16                       0                       # What read queue length does an incoming req see
system.mem_ctrl.rdQLenPdf::17                       0                       # What read queue length does an incoming req see
system.mem_ctrl.rdQLenPdf::18                       0                       # What read queue length does an incoming req see
system.mem_ctrl.rdQLenPdf::19                       0                       # What read queue length does an incoming req see
system.mem_ctrl.rdQLenPdf::20                       0                       # What read queue length does an incoming req see
system.mem_ctrl.rdQLenPdf::21                       0                       # What read queue length does an incoming req see
system.mem_ctrl.rdQLenPdf::22                       0                       # What read queue length does an incoming req see
system.mem_ctrl.rdQLenPdf::23                       0                       # What read queue length does an incoming req see
system.mem_ctrl.rdQLenPdf::24                       0                       # What read queue length does an incoming req see
system.mem_ctrl.rdQLenPdf::25                       0                       # What read queue length does an incoming req see
system.mem_ctrl.rdQLenPdf::26                       0                       # What read queue length does an incoming req see
system.mem_ctrl.rdQLenPdf::27                       0                       # What read queue length does an incoming req see
system.mem_ctrl.rdQLenPdf::28                       0                       # What read queue length does an incoming req see
system.mem_ctrl.rdQLenPdf::29                       0                       # What read queue length does an incoming req see
system.mem_ctrl.rdQLenPdf::30                       0                       # What read queue length does an incoming req see
system.mem_ctrl.rdQLenPdf::31                       0                       # What read queue length does an incoming req see
system.mem_ctrl.wrQLenPdf::0                        1                       # What write queue length does an incoming req see
system.mem_ctrl.wrQLenPdf::1                        1                       # What write queue length does an incoming req see
system.mem_ctrl.wrQLenPdf::2                        1                       # What write queue length does an incoming req see
system.mem_ctrl.wrQLenPdf::3                        1                       # What write queue length does an incoming req see
system.mem_ctrl.wrQLenPdf::4                        1                       # What write queue length does an incoming req see
system.mem_ctrl.wrQLenPdf::5                        1                       # What write queue length does an incoming req see
system.mem_ctrl.wrQLenPdf::6                        1                       # What write queue length does an incoming req see
system.mem_ctrl.wrQLenPdf::7                        1                       # What write queue length does an incoming req see
system.mem_ctrl.wrQLenPdf::8                        1                       # What write queue length does an incoming req see
system.mem_ctrl.wrQLenPdf::9                        1                       # What write queue length does an incoming req see
system.mem_ctrl.wrQLenPdf::10                       1                       # What write queue length does an incoming req see
system.mem_ctrl.wrQLenPdf::11                       1                       # What write queue length does an incoming req see
system.mem_ctrl.wrQLenPdf::12                       1                       # What write queue length does an incoming req see
system.mem_ctrl.wrQLenPdf::13                       1                       # What write queue length does an incoming req see
system.mem_ctrl.wrQLenPdf::14                       1                       # What write queue length does an incoming req see
system.mem_ctrl.wrQLenPdf::15                       2                       # What write queue length does an incoming req see
system.mem_ctrl.wrQLenPdf::16                       2                       # What write queue length does an incoming req see
system.mem_ctrl.wrQLenPdf::17                       3                       # What write queue length does an incoming req see
system.mem_ctrl.wrQLenPdf::18                       3                       # What write queue length does an incoming req see
system.mem_ctrl.wrQLenPdf::19                       3                       # What write queue length does an incoming req see
system.mem_ctrl.wrQLenPdf::20                       3                       # What write queue length does an incoming req see
system.mem_ctrl.wrQLenPdf::21                       3                       # What write queue length does an incoming req see
system.mem_ctrl.wrQLenPdf::22                       3                       # What write queue length does an incoming req see
system.mem_ctrl.wrQLenPdf::23                       2                       # What write queue length does an incoming req see
system.mem_ctrl.wrQLenPdf::24                       2                       # What write queue length does an incoming req see
system.mem_ctrl.wrQLenPdf::25                       2                       # What write queue length does an incoming req see
system.mem_ctrl.wrQLenPdf::26                       2                       # What write queue length does an incoming req see
system.mem_ctrl.wrQLenPdf::27                       2                       # What write queue length does an incoming req see
system.mem_ctrl.wrQLenPdf::28                       2                       # What write queue length does an incoming req see
system.mem_ctrl.wrQLenPdf::29                       2                       # What write queue length does an incoming req see
system.mem_ctrl.wrQLenPdf::30                       2                       # What write queue length does an incoming req see
system.mem_ctrl.wrQLenPdf::31                       2                       # What write queue length does an incoming req see
system.mem_ctrl.wrQLenPdf::32                       2                       # What write queue length does an incoming req see
system.mem_ctrl.wrQLenPdf::33                       0                       # What write queue length does an incoming req see
system.mem_ctrl.wrQLenPdf::34                       0                       # What write queue length does an incoming req see
system.mem_ctrl.wrQLenPdf::35                       0                       # What write queue length does an incoming req see
system.mem_ctrl.wrQLenPdf::36                       0                       # What write queue length does an incoming req see
system.mem_ctrl.wrQLenPdf::37                       0                       # What write queue length does an incoming req see
system.mem_ctrl.wrQLenPdf::38                       0                       # What write queue length does an incoming req see
system.mem_ctrl.wrQLenPdf::39                       0                       # What write queue length does an incoming req see
system.mem_ctrl.wrQLenPdf::40                       0                       # What write queue length does an incoming req see
system.mem_ctrl.wrQLenPdf::41                       0                       # What write queue length does an incoming req see
system.mem_ctrl.wrQLenPdf::42                       0                       # What write queue length does an incoming req see
system.mem_ctrl.wrQLenPdf::43                       0                       # What write queue length does an incoming req see
system.mem_ctrl.wrQLenPdf::44                       0                       # What write queue length does an incoming req see
system.mem_ctrl.wrQLenPdf::45                       0                       # What write queue length does an incoming req see
system.mem_ctrl.wrQLenPdf::46                       0                       # What write queue length does an incoming req see
system.mem_ctrl.wrQLenPdf::47                       0                       # What write queue length does an incoming req see
system.mem_ctrl.wrQLenPdf::48                       0                       # What write queue length does an incoming req see
system.mem_ctrl.wrQLenPdf::49                       0                       # What write queue length does an incoming req see
system.mem_ctrl.wrQLenPdf::50                       0                       # What write queue length does an incoming req see
system.mem_ctrl.wrQLenPdf::51                       0                       # What write queue length does an incoming req see
system.mem_ctrl.wrQLenPdf::52                       0                       # What write queue length does an incoming req see
system.mem_ctrl.wrQLenPdf::53                       0                       # What write queue length does an incoming req see
system.mem_ctrl.wrQLenPdf::54                       0                       # What write queue length does an incoming req see
system.mem_ctrl.wrQLenPdf::55                       0                       # What write queue length does an incoming req see
system.mem_ctrl.wrQLenPdf::56                       0                       # What write queue length does an incoming req see
system.mem_ctrl.wrQLenPdf::57                       0                       # What write queue length does an incoming req see
system.mem_ctrl.wrQLenPdf::58                       0                       # What write queue length does an incoming req see
system.mem_ctrl.wrQLenPdf::59                       0                       # What write queue length does an incoming req see
system.mem_ctrl.wrQLenPdf::60                       0                       # What write queue length does an incoming req see
system.mem_ctrl.wrQLenPdf::61                       0                       # What write queue length does an incoming req see
system.mem_ctrl.wrQLenPdf::62                       0                       # What write queue length does an incoming req see
system.mem_ctrl.wrQLenPdf::63                       0                       # What write queue length does an incoming req see
system.mem_ctrl.bytesPerActivate::samples         1398                       # Bytes accessed per row activation
system.mem_ctrl.bytesPerActivate::mean     188.795422                       # Bytes accessed per row activation
system.mem_ctrl.bytesPerActivate::gmean    138.965551                       # Bytes accessed per row activation
system.mem_ctrl.bytesPerActivate::stdev    181.976446                       # Bytes accessed per row activation
system.mem_ctrl.bytesPerActivate::0-127           496     35.48%     35.48% # Bytes accessed per row activation
system.mem_ctrl.bytesPerActivate::128-255          547     39.13%     74.61% # Bytes accessed per row activation
system.mem_ctrl.bytesPerActivate::256-383          191     13.66%     88.27% # Bytes accessed per row activation
system.mem_ctrl.bytesPerActivate::384-511           73      5.22%     93.49% # Bytes accessed per row activation
system.mem_ctrl.bytesPerActivate::512-639           28      2.00%     95.49% # Bytes accessed per row activation
system.mem_ctrl.bytesPerActivate::640-767           21      1.50%     97.00% # Bytes accessed per row activation
system.mem_ctrl.bytesPerActivate::768-895           13      0.93%     97.93% # Bytes accessed per row activation
system.mem_ctrl.bytesPerActivate::896-1023            9      0.64%     98.57% # Bytes accessed per row activation
system.mem_ctrl.bytesPerActivate::1024-1151           20      1.43%    100.00% # Bytes accessed per row activation
system.mem_ctrl.bytesPerActivate::total          1398                       # Bytes accessed per row activation
system.mem_ctrl.rdPerTurnAround::samples            2                       # Reads before turning the bus around for writes
system.mem_ctrl.rdPerTurnAround::mean            1989                       # Reads before turning the bus around for writes
system.mem_ctrl.rdPerTurnAround::gmean    1056.833005                       # Reads before turning the bus around for writes
system.mem_ctrl.rdPerTurnAround::stdev    2382.949853                       # Reads before turning the bus around for writes
system.mem_ctrl.rdPerTurnAround::256-383            1     50.00%     50.00% # Reads before turning the bus around for writes
system.mem_ctrl.rdPerTurnAround::3584-3711            1     50.00%    100.00% # Reads before turning the bus around for writes
system.mem_ctrl.rdPerTurnAround::total              2                       # Reads before turning the bus around for writes
system.mem_ctrl.wrPerTurnAround::samples            2                       # Writes before turning the bus around for reads
system.mem_ctrl.wrPerTurnAround::mean              17                       # Writes before turning the bus around for reads
system.mem_ctrl.wrPerTurnAround::gmean      16.970563                       # Writes before turning the bus around for reads
system.mem_ctrl.wrPerTurnAround::stdev       1.414214                       # Writes before turning the bus around for reads
system.mem_ctrl.wrPerTurnAround::16                 1     50.00%     50.00% # Writes before turning the bus around for reads
system.mem_ctrl.wrPerTurnAround::18                 1     50.00%    100.00% # Writes before turning the bus around for reads
system.mem_ctrl.wrPerTurnAround::total              2                       # Writes before turning the bus around for reads
system.mem_ctrl.bytesReadDRAM                  261760                       # Total number of bytes read from DRAM
system.mem_ctrl.bytesReadWrQ                        0                       # Total number of bytes read from write queue
system.mem_ctrl.bytesWritten                     2176                       # Total number of bytes written to DRAM
system.mem_ctrl.bytesReadSys                   261760                       # Total read bytes from the system interface side
system.mem_ctrl.bytesWrittenSys                  3648                       # Total written bytes from the system interface side
system.mem_ctrl.avgRdBW                         66.04                       # Average DRAM read bandwidth in MiByte/s
system.mem_ctrl.avgWrBW                          0.55                       # Average achieved write bandwidth in MiByte/s
system.mem_ctrl.avgRdBWSys                      66.04                       # Average system read bandwidth in MiByte/s
system.mem_ctrl.avgWrBWSys                       0.92                       # Average system write bandwidth in MiByte/s
system.mem_ctrl.peakBW                       12800.00                       # Theoretical peak bandwidth in MiByte/s
system.mem_ctrl.busUtil                          0.52                       # Data bus utilization in percentage
system.mem_ctrl.busUtilRead                      0.52                       # Data bus utilization in percentage for reads
system.mem_ctrl.busUtilWrite                     0.00                       # Data bus utilization in percentage for writes
system.mem_ctrl.totGap                     3960408000                       # Total gap between requests
system.mem_ctrl.avgGap                      955005.55                       # Average gap between requests
system.mem_ctrl.masterReadBytes::.cpu.inst       119040                       # Per-master bytes read from memory
system.mem_ctrl.masterReadBytes::.cpu.data       142720                       # Per-master bytes read from memory
system.mem_ctrl.masterWriteBytes::.writebacks         2176                       # Per-master bytes write to memory
system.mem_ctrl.masterReadRate::.cpu.inst 30031272.484351146966                       # Per-master bytes read from memory rate (Bytes/sec)
system.mem_ctrl.masterReadRate::.cpu.data 36005235.290377989411                       # Per-master bytes read from memory rate (Bytes/sec)
system.mem_ctrl.masterWriteRate::.writebacks 548958.744337601587                       # Per-master bytes write to memory rate (Bytes/sec)
system.mem_ctrl.masterReadAccesses::.cpu.inst         1860                       # Per-master read serviced memory accesses
system.mem_ctrl.masterReadAccesses::.cpu.data         2230                       # Per-master read serviced memory accesses
system.mem_ctrl.masterWriteAccesses::.writebacks           57                       # Per-master write serviced memory accesses
system.mem_ctrl.masterReadTotalLat::.cpu.inst     51223500                       # Per-master read total memory access latency
system.mem_ctrl.masterReadTotalLat::.cpu.data     63111000                       # Per-master read total memory access latency
system.mem_ctrl.masterWriteTotalLat::.writebacks  26760009000                       # Per-master write total memory access latency
system.mem_ctrl.masterReadAvgLat::.cpu.inst     27539.52                       # Per-master read average memory access latency
system.mem_ctrl.masterReadAvgLat::.cpu.data     28300.90                       # Per-master read average memory access latency
system.mem_ctrl.masterWriteAvgLat::.writebacks 469473842.11                       # Per-master write average memory access latency
system.mem_ctrl.pageHitRate                     65.73                       # Row buffer hit rate, read and write combined
system.mem_ctrl.rank1.actEnergy               5419260                       # Energy for activate commands per rank (pJ)
system.mem_ctrl.rank1.preEnergy               2880405                       # Energy for precharge commands per rank (pJ)
system.mem_ctrl.rank1.readEnergy             14644140                       # Energy for read commands per rank (pJ)
system.mem_ctrl.rank1.writeEnergy              167040                       # Energy for write commands per rank (pJ)
system.mem_ctrl.rank1.refreshEnergy      312851760.000000                       # Energy for refresh commands per rank (pJ)
system.mem_ctrl.rank1.actBackEnergy        1147105050                       # Energy for active background per rank (pJ)
system.mem_ctrl.rank1.preBackEnergy         556142400                       # Energy for precharge background per rank (pJ)
system.mem_ctrl.rank1.actPowerDownEnergy            0                       # Energy for active power-down per rank (pJ)
system.mem_ctrl.rank1.prePowerDownEnergy            0                       # Energy for precharge power-down per rank (pJ)
system.mem_ctrl.rank1.selfRefreshEnergy             0                       # Energy for self refresh per rank (pJ)
system.mem_ctrl.rank1.totalEnergy          2039210055                       # Total energy per rank (pJ)
system.mem_ctrl.rank1.averagePower         514.449536                       # Core power per rank (mW)
system.mem_ctrl.rank1.totalIdleTime                 0                       # Total Idle time Per DRAM Rank
system.mem_ctrl.rank1.memoryStateTime::IDLE   1435285500                       # Time in different power states
system.mem_ctrl.rank1.memoryStateTime::REF    132340000                       # Time in different power states
system.mem_ctrl.rank1.memoryStateTime::SREF            0                       # Time in different power states
system.mem_ctrl.rank1.memoryStateTime::PRE_PDN            0                       # Time in different power states
system.mem_ctrl.rank1.memoryStateTime::ACT   2396242500                       # Time in different power states
system.mem_ctrl.rank1.memoryStateTime::ACT_PDN            0                       # Time in different power states
system.mem_ctrl.rank0.actEnergy               4562460                       # Energy for activate commands per rank (pJ)
system.mem_ctrl.rank0.preEnergy               2425005                       # Energy for precharge commands per rank (pJ)
system.mem_ctrl.rank0.readEnergy             14558460                       # Energy for read commands per rank (pJ)
system.mem_ctrl.rank0.writeEnergy               10440                       # Energy for write commands per rank (pJ)
system.mem_ctrl.rank0.refreshEnergy      312851760.000000                       # Energy for refresh commands per rank (pJ)
system.mem_ctrl.rank0.actBackEnergy         673203630                       # Energy for active background per rank (pJ)
system.mem_ctrl.rank0.preBackEnergy         955217280                       # Energy for precharge background per rank (pJ)
system.mem_ctrl.rank0.actPowerDownEnergy            0                       # Energy for active power-down per rank (pJ)
system.mem_ctrl.rank0.prePowerDownEnergy            0                       # Energy for precharge power-down per rank (pJ)
system.mem_ctrl.rank0.selfRefreshEnergy             0                       # Energy for self refresh per rank (pJ)
system.mem_ctrl.rank0.totalEnergy          1962829035                       # Total energy per rank (pJ)
system.mem_ctrl.rank0.averagePower         495.180222                       # Core power per rank (mW)
system.mem_ctrl.rank0.totalIdleTime                 0                       # Total Idle time Per DRAM Rank
system.mem_ctrl.rank0.memoryStateTime::IDLE   2476872000                       # Time in different power states
system.mem_ctrl.rank0.memoryStateTime::REF    132340000                       # Time in different power states
system.mem_ctrl.rank0.memoryStateTime::SREF            0                       # Time in different power states
system.mem_ctrl.rank0.memoryStateTime::PRE_PDN            0                       # Time in different power states
system.mem_ctrl.rank0.memoryStateTime::ACT   1354656000                       # Time in different power states
system.mem_ctrl.rank0.memoryStateTime::ACT_PDN            0                       # Time in different power states
system.mem_ctrl.power_state.pwrStateResidencyTicks::UNDEFINED   3963868000                       # Cumulative time (in ticks) in various power states
system.cache_medium.blocked_cycles::no_mshrs            0                       # number of cycles access was blocked
system.cache_medium.blocked_cycles::no_targets            0                       # number of cycles access was blocked
system.cache_medium.blocked::no_mshrs               0                       # number of cycles access was blocked
system.cache_medium.blocked::no_targets             0                       # number of cycles access was blocked
system.cache_medium.avg_blocked_cycles::no_mshrs          nan                       # average number of cycles each access was blocked
system.cache_medium.avg_blocked_cycles::no_targets          nan                       # average number of cycles each access was blocked
system.cache_medium.replacements                    0                       # number of replacements
system.cache_medium.power_state.pwrStateResidencyTicks::UNDEFINED   3963868000                       # Cumulative time (in ticks) in various power states
system.cache_medium.tags.tagsinuse                  0                       # Cycle average of tags in use
system.cache_medium.tags.total_refs                 0                       # Total number of references to valid blocks.
system.cache_medium.tags.sampled_refs               0                       # Sample count of references to valid blocks.
system.cache_medium.tags.avg_refs                 nan                       # Average number of references to valid blocks.
system.cache_medium.tags.warmup_cycle               0                       # Cycle when the warmup percentage was hit.
system.cache_medium.tags.tag_accesses               0                       # Number of tag accesses
system.cache_medium.tags.data_accesses              0                       # Number of data accesses
system.cache_medium.tags.power_state.pwrStateResidencyTicks::UNDEFINED   3963868000                       # Cumulative time (in ticks) in various power states
system.clk_domain.clock                          1000                       # Clock period in ticks
system.clk_domain.voltage_domain.voltage            1                       # Voltage in Volts
system.dcache.demand_hits::.cpu.data           333963                       # number of demand (read+write) hits
system.dcache.demand_hits::total               333963                       # number of demand (read+write) hits
system.dcache.overall_hits::.cpu.data          333963                       # number of overall hits
system.dcache.overall_hits::total              333963                       # number of overall hits
system.dcache.demand_misses::.cpu.data           7127                       # number of demand (read+write) misses
system.dcache.demand_misses::total               7127                       # number of demand (read+write) misses
system.dcache.overall_misses::.cpu.data          7127                       # number of overall misses
system.dcache.overall_misses::total              7127                       # number of overall misses
system.dcache.demand_miss_latency::.cpu.data    255889000                       # number of demand (read+write) miss cycles
system.dcache.demand_miss_latency::total    255889000                       # number of demand (read+write) miss cycles
system.dcache.overall_miss_latency::.cpu.data    255889000                       # number of overall miss cycles
system.dcache.overall_miss_latency::total    255889000                       # number of overall miss cycles
system.dcache.demand_accesses::.cpu.data       341090                       # number of demand (read+write) accesses
system.dcache.demand_accesses::total           341090                       # number of demand (read+write) accesses
system.dcache.overall_accesses::.cpu.data       341090                       # number of overall (read+write) accesses
system.dcache.overall_accesses::total          341090                       # number of overall (read+write) accesses
system.dcache.demand_miss_rate::.cpu.data     0.020895                       # miss rate for demand accesses
system.dcache.demand_miss_rate::total        0.020895                       # miss rate for demand accesses
system.dcache.overall_miss_rate::.cpu.data     0.020895                       # miss rate for overall accesses
system.dcache.overall_miss_rate::total       0.020895                       # miss rate for overall accesses
system.dcache.demand_avg_miss_latency::.cpu.data 35904.167251                       # average overall miss latency
system.dcache.demand_avg_miss_latency::total 35904.167251                       # average overall miss latency
system.dcache.overall_avg_miss_latency::.cpu.data 35904.167251                       # average overall miss latency
system.dcache.overall_avg_miss_latency::total 35904.167251                       # average overall miss latency
system.dcache.blocked_cycles::no_mshrs              0                       # number of cycles access was blocked
system.dcache.blocked_cycles::no_targets            0                       # number of cycles access was blocked
system.dcache.blocked::no_mshrs                     0                       # number of cycles access was blocked
system.dcache.blocked::no_targets                   0                       # number of cycles access was blocked
system.dcache.avg_blocked_cycles::no_mshrs          nan                       # average number of cycles each access was blocked
system.dcache.avg_blocked_cycles::no_targets          nan                       # average number of cycles each access was blocked
system.dcache.writebacks::.writebacks            3963                       # number of writebacks
system.dcache.writebacks::total                  3963                       # number of writebacks
system.dcache.demand_mshr_misses::.cpu.data         7127                       # number of demand (read+write) MSHR misses
system.dcache.demand_mshr_misses::total          7127                       # number of demand (read+write) MSHR misses
system.dcache.overall_mshr_misses::.cpu.data         7127                       # number of overall MSHR misses
system.dcache.overall_mshr_misses::total         7127                       # number of overall MSHR misses
system.dcache.demand_mshr_miss_latency::.cpu.data    241635000                       # number of demand (read+write) MSHR miss cycles
system.dcache.demand_mshr_miss_latency::total    241635000                       # number of demand (read+write) MSHR miss cycles
system.dcache.overall_mshr_miss_latency::.cpu.data    241635000                       # number of overall MSHR miss cycles
[...]
system.dcache.tags.age_task_id_blocks_1024::0           21                       # Occupied blocks per task id
system.dcache.tags.age_task_id_blocks_1024::1          164                       # Occupied blocks per task id
system.dcache.tags.age_task_id_blocks_1024::2           71                       # Occupied blocks per task id
system.dcache.tags.occ_task_id_percent::1024            1                       # Percentage of cache occupancy per task id
system.dcache.tags.tag_accesses               2090492                       # Number of tag accesses
system.dcache.tags.data_accesses              2090492                       # Number of data accesses
system.dcache.tags.power_state.pwrStateResidencyTicks::UNDEFINED  24317294000                       # Cumulative time (in ticks) in various power states
system.cache_large.blocked_cycles::no_mshrs            0                       # number of cycles access was blocked
system.cache_large.blocked_cycles::no_targets            0                       # number of cycles access was blocked
system.cache_large.blocked::no_mshrs                0                       # number of cycles access was blocked
system.cache_large.blocked::no_targets              0                       # number of cycles access was blocked
system.cache_large.avg_blocked_cycles::no_mshrs          nan                       # average number of cycles each access was blocked
system.cache_large.avg_blocked_cycles::no_targets          nan                       # average number of cycles each access was blocked
system.cache_large.replacements                     0                       # number of replacements
system.cache_large.power_state.pwrStateResidencyTicks::UNDEFINED  24317294000                       # Cumulative time (in ticks) in various power states
system.cache_large.tags.tagsinuse                   0                       # Cycle average of tags in use
system.cache_large.tags.total_refs                  0                       # Total number of references to valid blocks.
system.cache_large.tags.sampled_refs                0                       # Sample count of references to valid blocks.
system.cache_large.tags.avg_refs                  nan                       # Average number of references to valid blocks.
system.cache_large.tags.warmup_cycle                0                       # Cycle when the warmup percentage was hit.
system.cache_large.tags.tag_accesses                0                       # Number of tag accesses
system.cache_large.tags.data_accesses               0                       # Number of data accesses
system.cache_large.tags.power_state.pwrStateResidencyTicks::UNDEFINED  24317294000                       # Cumulative time (in ticks) in various power states
system.l2cache.demand_hits::.cpu.inst            6903                       # number of demand (read+write) hits
system.l2cache.demand_hits::.cpu.data           12352                       # number of demand (read+write) hits
system.l2cache.demand_hits::total               19255                       # number of demand (read+write) hits
system.l2cache.overall_hits::.cpu.inst           6903                       # number of overall hits
system.l2cache.overall_hits::.cpu.data          12352                       # number of overall hits
system.l2cache.overall_hits::total              19255                       # number of overall hits
system.l2cache.demand_misses::.cpu.inst         22272                       # number of demand (read+write) misses
system.l2cache.demand_misses::.cpu.data         43084                       # number of demand (read+write) misses
system.l2cache.demand_misses::total             65356                       # number of demand (read+write) misses
system.l2cache.overall_misses::.cpu.inst        22272                       # number of overall misses
system.l2cache.overall_misses::.cpu.data        43084                       # number of overall misses
system.l2cache.overall_misses::total            65356                       # number of overall misses
system.l2cache.demand_miss_latency::.cpu.inst    439702000                       # number of demand (read+write) miss cycles
system.l2cache.demand_miss_latency::.cpu.data   1307437000                       # number of demand (read+write) miss cycles
system.l2cache.demand_miss_latency::total   1747139000                       # number of demand (read+write) miss cycles
system.l2cache.overall_miss_latency::.cpu.inst    439702000                       # number of overall miss cycles
system.l2cache.overall_miss_latency::.cpu.data   1307437000                       # number of overall miss cycles
system.l2cache.overall_miss_latency::total   1747139000                       # number of overall miss cycles
system.l2cache.demand_accesses::.cpu.inst        29175                       # number of demand (read+write) accesses
system.l2cache.demand_accesses::.cpu.data        55436                       # number of demand (read+write) accesses
system.l2cache.demand_accesses::total           84611                       # number of demand (read+write) accesses
system.l2cache.overall_accesses::.cpu.inst        29175                       # number of overall (read+write) accesses
system.l2cache.overall_accesses::.cpu.data        55436                       # number of overall (read+write) accesses
system.l2cache.overall_accesses::total          84611                       # number of overall (read+write) accesses
system.l2cache.demand_miss_rate::.cpu.inst     0.763393                       # miss rate for demand accesses
system.l2cache.demand_miss_rate::.cpu.data     0.777185                       # miss rate for demand accesses
system.l2cache.demand_miss_rate::total       0.772429                       # miss rate for demand accesses
system.l2cache.overall_miss_rate::.cpu.inst     0.763393                       # miss rate for overall accesses
system.l2cache.overall_miss_rate::.cpu.data     0.777185                       # miss rate for overall accesses
system.l2cache.overall_miss_rate::total      0.772429                       # miss rate for overall accesses
system.l2cache.demand_avg_miss_latency::.cpu.inst 19742.367098                       # average overall miss latency
system.l2cache.demand_avg_miss_latency::.cpu.data 30346.230619                       # average overall miss latency
system.l2cache.demand_avg_miss_latency::total 26732.648877                       # average overall miss latency
system.l2cache.overall_avg_miss_latency::.cpu.inst 19742.367098                       # average overall miss latency
system.l2cache.overall_avg_miss_latency::.cpu.data 30346.230619                       # average overall miss latency
system.l2cache.overall_avg_miss_latency::total 26732.648877                       # average overall miss latency
system.l2cache.blocked_cycles::no_mshrs             0                       # number of cycles access was blocked
system.l2cache.blocked_cycles::no_targets            0                       # number of cycles access was blocked
system.l2cache.blocked::no_mshrs                    0                       # number of cycles access was blocked
system.l2cache.blocked::no_targets                  0                       # number of cycles access was blocked
system.l2cache.avg_blocked_cycles::no_mshrs          nan                       # average number of cycles each access was blocked
system.l2cache.avg_blocked_cycles::no_targets          nan                       # average number of cycles each access was blocked
system.l2cache.writebacks::.writebacks          11938                       # number of writebacks
system.l2cache.writebacks::total                11938                       # number of writebacks
system.l2cache.demand_mshr_misses::.cpu.inst        22272                       # number of demand (read+write) MSHR misses
system.l2cache.demand_mshr_misses::.cpu.data        43084                       # number of demand (read+write) MSHR misses
system.l2cache.demand_mshr_misses::total        65356                       # number of demand (read+write) MSHR misses
system.l2cache.overall_mshr_misses::.cpu.inst        22272                       # number of overall MSHR misses
system.l2cache.overall_mshr_misses::.cpu.data        43084                       # number of overall MSHR misses
system.l2cache.overall_mshr_misses::total        65356                       # number of overall MSHR misses
system.l2cache.demand_mshr_miss_latency::.cpu.inst    395158000                       # number of demand (read+write) MSHR miss cycles
system.l2cache.demand_mshr_miss_latency::.cpu.data   1221269000                       # number of demand (read+write) MSHR miss cycles
system.l2cache.demand_mshr_miss_latency::total   1616427000                       # number of demand (read+write) MSHR miss cycles
system.l2cache.overall_mshr_miss_latency::.cpu.inst    395158000                       # number of overall MSHR miss cycles
system.l2cache.overall_mshr_miss_latency::.cpu.data   1221269000                       # number of overall MSHR miss cycles
system.l2cache.overall_mshr_miss_latency::total   1616427000                       # number of overall MSHR miss cycles
system.l2cache.demand_mshr_miss_rate::.cpu.inst     0.763393                       # mshr miss rate for demand accesses
system.l2cache.demand_mshr_miss_rate::.cpu.data     0.777185                       # mshr miss rate for demand accesses
system.l2cache.demand_mshr_miss_rate::total     0.772429                       # mshr miss rate for demand accesses
system.l2cache.overall_mshr_miss_rate::.cpu.inst     0.763393                       # mshr miss rate for overall accesses
system.l2cache.overall_mshr_miss_rate::.cpu.data     0.777185                       # mshr miss rate for overall accesses
system.l2cache.overall_mshr_miss_rate::total     0.772429                       # mshr miss rate for overall accesses
system.l2cache.demand_avg_mshr_miss_latency::.cpu.inst 17742.367098                       # average overall mshr miss latency
system.l2cache.demand_avg_mshr_miss_latency::.cpu.data 28346.230619                       # average overall mshr miss latency
system.l2cache.demand_avg_mshr_miss_latency::total 24732.648877                       # average overall mshr miss latency
system.l2cache.overall_avg_mshr_miss_latency::.cpu.inst 17742.367098                       # average overall mshr miss latency
system.l2cache.overall_avg_mshr_miss_latency::.cpu.data 28346.230619                       # average overall mshr miss latency
system.l2cache.overall_avg_mshr_miss_latency::total 24732.648877                       # average overall mshr miss latency
system.l2cache.replacements                     73543                       # number of replacements
system.l2cache.ReadReq_hits::.cpu.inst           6903                       # number of ReadReq hits
system.l2cache.ReadReq_hits::.cpu.data          12352                       # number of ReadReq hits
system.l2cache.ReadReq_hits::total              19255                       # number of ReadReq hits
system.l2cache.ReadReq_misses::.cpu.inst        22272                       # number of ReadReq misses
system.l2cache.ReadReq_misses::.cpu.data        43084                       # number of ReadReq misses
system.l2cache.ReadReq_misses::total            65356                       # number of ReadReq misses
system.l2cache.ReadReq_miss_latency::.cpu.inst    439702000                       # number of ReadReq miss cycles
system.l2cache.ReadReq_miss_latency::.cpu.data   1307437000                       # number of ReadReq miss cycles
system.l2cache.ReadReq_miss_latency::total   1747139000                       # number of ReadReq miss cycles
system.l2cache.ReadReq_accesses::.cpu.inst        29175                       # number of ReadReq accesses(hits+misses)
system.l2cache.ReadReq_accesses::.cpu.data        55436                       # number of ReadReq accesses(hits+misses)
system.l2cache.ReadReq_accesses::total          84611                       # number of ReadReq accesses(hits+misses)
system.l2cache.ReadReq_miss_rate::.cpu.inst     0.763393                       # miss rate for ReadReq accesses
system.l2cache.ReadReq_miss_rate::.cpu.data     0.777185                       # miss rate for ReadReq accesses
system.l2cache.ReadReq_miss_rate::total      0.772429                       # miss rate for ReadReq accesses
system.l2cache.ReadReq_avg_miss_latency::.cpu.inst 19742.367098                       # average ReadReq miss latency
system.l2cache.ReadReq_avg_miss_latency::.cpu.data 30346.230619                       # average ReadReq miss latency
system.l2cache.ReadReq_avg_miss_latency::total 26732.648877                       # average ReadReq miss latency
system.l2cache.ReadReq_mshr_misses::.cpu.inst        22272                       # number of ReadReq MSHR misses
system.l2cache.ReadReq_mshr_misses::.cpu.data        43084                       # number of ReadReq MSHR misses
system.l2cache.ReadReq_mshr_misses::total        65356                       # number of ReadReq MSHR misses
system.l2cache.ReadReq_mshr_miss_latency::.cpu.inst    395158000                       # number of ReadReq MSHR miss cycles
system.l2cache.ReadReq_mshr_miss_latency::.cpu.data   1221269000                       # number of ReadReq MSHR miss cycles
system.l2cache.ReadReq_mshr_miss_latency::total   1616427000                       # number of ReadReq MSHR miss cycles
system.l2cache.ReadReq_mshr_miss_rate::.cpu.inst     0.763393                       # mshr miss rate for ReadReq accesses
system.l2cache.ReadReq_mshr_miss_rate::.cpu.data     0.777185                       # mshr miss rate for ReadReq accesses
system.l2cache.ReadReq_mshr_miss_rate::total     0.772429                       # mshr miss rate for ReadReq accesses
system.l2cache.ReadReq_avg_mshr_miss_latency::.cpu.inst 17742.367098                       # average ReadReq mshr miss latency
system.l2cache.ReadReq_avg_mshr_miss_latency::.cpu.data 28346.230619                       # average ReadReq mshr miss latency
system.l2cache.ReadReq_avg_mshr_miss_latency::total 24732.648877                       # average ReadReq mshr miss latency
system.l2cache.WritebackDirty_hits::.writebacks        15469                       # number of WritebackDirty hits
system.l2cache.WritebackDirty_hits::total        15469                       # number of WritebackDirty hits
system.l2cache.WritebackDirty_accesses::.writebacks        15469                       # number of WritebackDirty accesses(hits+misses)
system.l2cache.WritebackDirty_accesses::total        15469                       # number of WritebackDirty accesses(hits+misses)
system.l2cache.power_state.pwrStateResidencyTicks::UNDEFINED  24317294000                       # Cumulative time (in ticks) in various power states
system.l2cache.tags.tagsinuse              509.992387                       # Cycle average of tags in use
system.l2cache.tags.total_refs                 100080                       # Total number of references to valid blocks.
system.l2cache.tags.sampled_refs                74055                       # Sample count of references to valid blocks.
system.l2cache.tags.avg_refs                 1.351428                       # Average number of references to valid blocks.
system.l2cache.tags.warmup_cycle                78000                       # Cycle when the warmup percentage was hit.
system.l2cache.tags.occ_blocks::.writebacks    67.759258                       # Average occupied blocks per requestor
system.l2cache.tags.occ_blocks::.cpu.inst    51.780349                       # Average occupied blocks per requestor
system.l2cache.tags.occ_blocks::.cpu.data   390.452780                       # Average occupied blocks per requestor
system.l2cache.tags.occ_percent::.writebacks     0.132342                       # Average percentage of cache occupancy
system.l2cache.tags.occ_percent::.cpu.inst     0.101133                       # Average percentage of cache occupancy
system.l2cache.tags.occ_percent::.cpu.data     0.762603                       # Average percentage of cache occupancy
system.l2cache.tags.occ_percent::total       0.996079                       # Average percentage of cache occupancy
system.l2cache.tags.occ_task_id_blocks::1024          512                       # Occupied blocks per task id
system.l2cache.tags.age_task_id_blocks_1024::0           21                       # Occupied blocks per task id
system.l2cache.tags.age_task_id_blocks_1024::1          203                       # Occupied blocks per task id
system.l2cache.tags.age_task_id_blocks_1024::2          288                       # Occupied blocks per task id
system.l2cache.tags.occ_task_id_percent::1024            1                       # Percentage of cache occupancy per task id
system.l2cache.tags.tag_accesses               174135                       # Number of tag accesses
system.l2cache.tags.data_accesses              174135                       # Number of data accesses
system.l2cache.tags.power_state.pwrStateResidencyTicks::UNDEFINED  24317294000                       # Cumulative time (in ticks) in various power states
system.l2bar.trans_dist::ReadReq                84611                       # Transaction distribution
system.l2bar.trans_dist::ReadResp               84611                       # Transaction distribution
system.l2bar.trans_dist::WritebackDirty         15469                       # Transaction distribution
system.l2bar.pkt_count_system.dcache.mem_side::system.l2cache.cpu_side       126341                       # Packet count per connected master and slave (bytes)
system.l2bar.pkt_count_system.icache.mem_side::system.l2cache.cpu_side        58350                       # Packet count per connected master and slave (bytes)
system.l2bar.pkt_count::total                  184691                       # Packet count per connected master and slave (bytes)
system.l2bar.pkt_size_system.dcache.mem_side::system.l2cache.cpu_side      4537920                       # Cumulative packet size per connected master and slave (bytes)
system.l2bar.pkt_size_system.icache.mem_side::system.l2cache.cpu_side      1867200                       # Cumulative packet size per connected master and slave (bytes)
system.l2bar.pkt_size::total                  6405120                       # Cumulative packet size per connected master and slave (bytes)
system.l2bar.respLayer1.occupancy           145875000                       # Layer occupancy (ticks)
system.l2bar.respLayer1.utilization               0.6                       # Layer utilization (%)
system.l2bar.reqLayer0.occupancy            161956000                       # Layer occupancy (ticks)
system.l2bar.reqLayer0.utilization                0.7                       # Layer utilization (%)
system.l2bar.respLayer0.occupancy           277180000                       # Layer occupancy (ticks)
system.l2bar.respLayer0.utilization               1.1                       # Layer utilization (%)
system.l2bar.power_state.pwrStateResidencyTicks::UNDEFINED  24317294000                       # Cumulative time (in ticks) in various power states
system.cpu.dtb.walker.power_state.pwrStateResidencyTicks::UNDEFINED  24317294000                       # Cumulative time (in ticks) in various power states
system.cpu.interrupts.clk_domain.clock          16000                       # Clock period in ticks
system.cpu.itb.walker.power_state.pwrStateResidencyTicks::UNDEFINED  24317294000                       # Cumulative time (in ticks) in various power states
system.cpu.power_state.numTransitions               1                       # Number of power state transitions
system.cpu.power_state.pwrStateResidencyTicks::ON  24317294000                       # Cumulative time (in ticks) in various power states

---------- End Simulation Statistics   ----------
