
---------- Begin Simulation Statistics ----------
final_tick                               257036678000                       # Number of ticks from beginning of simulation (restored from checkpoints and never reset)
host_inst_rate                                 217137                       # Simulator instruction rate (inst/s)
host_mem_usage                                 679312                       # Number of bytes of host memory used
host_op_rate                                   420722                       # Simulator op (including micro ops) rate (op/s)
host_seconds                                    13.82                       # Real time elapsed on the host
host_tick_rate                            18603844492                       # Simulator tick rate (ticks/s)
sim_freq                                 1000000000000                       # Frequency of simulated ticks
sim_insts                                     3000000                       # Number of instructions simulated
sim_ops                                       5812818                       # Number of ops (including micro ops) simulated
sim_seconds                                  0.257037                       # Number of seconds simulated
sim_ticks                                257036678000                       # Number of ticks simulated
system.cachebus.snoop_filter.hit_multi_requests            0                       # Number of requests hitting in the snoop filter with multiple (>1) holders of the requested data.
system.cachebus.snoop_filter.hit_multi_snoops            0                       # Number of snoops hitting in the snoop filter with multiple (>1) holders of the requested data.
system.cachebus.snoop_filter.hit_single_requests            0                       # Number of requests hitting in the snoop filter with a single holder of the requested data.
system.cachebus.snoop_filter.hit_single_snoops            0                       # Number of snoops hitting in the snoop filter with a single holder of the requested data.
system.cachebus.snoop_filter.tot_requests            0                       # Total number of requests made to the snoop filter.
system.cachebus.snoop_filter.tot_snoops             0                       # Total number of snoops made to the snoop filter.
system.cpu.Branches                            715391                       # Number of branches fetched
system.cpu.committedInsts                     3000000                       # Number of instructions committed
system.cpu.committedOps                       5812818                       # Number of ops (including micro ops) committed
system.cpu.dtb.rdAccesses                      635353                       # TLB accesses on read requests
system.cpu.dtb.rdMisses                            24                       # TLB misses on read requests
system.cpu.dtb.wrAccesses                      468453                       # TLB accesses on write requests
system.cpu.dtb.wrMisses                           435                       # TLB misses on write requests
system.cpu.idle_fraction                            0                       # Percentage of idle cycles
system.cpu.itb.rdAccesses                           0                       # TLB accesses on read requests
system.cpu.itb.rdMisses                             0                       # TLB misses on read requests
system.cpu.itb.wrAccesses                     4104577                       # TLB accesses on write requests
system.cpu.itb.wrMisses                            48                       # TLB misses on write requests
system.cpu.not_idle_fraction                        1                       # Percentage of non-idle cycles
system.cpu.numCycles                        257036678                       # number of cpu cycles simulated
system.cpu.numWorkItemsCompleted                    0                       # number of work items this cpu completed
system.cpu.numWorkItemsStarted                      0                       # number of work items this cpu started
system.cpu.num_busy_cycles                  257036678                       # Number of busy cycles
system.cpu.num_cc_register_reads              3730366                       # number of times the CC registers were read
system.cpu.num_cc_register_writes             1780317                       # number of times the CC registers were written
system.cpu.num_conditional_control_insts       555160                       # number of instructions that are conditional controls
system.cpu.num_fp_alu_accesses                  51034                       # Number of float alu accesses
system.cpu.num_fp_insts                         51034                       # number of float instructions
system.cpu.num_fp_register_reads                77930                       # number of times the floating registers were read
system.cpu.num_fp_register_writes               43718                       # number of times the floating registers were written
system.cpu.num_func_calls                       64931                       # number of times a function call or return occured
system.cpu.num_idle_cycles                          0                       # Number of idle cycles
system.cpu.num_int_alu_accesses               5758250                       # Number of integer alu accesses
system.cpu.num_int_insts                      5758250                       # number of integer instructions
system.cpu.num_int_register_reads            11353099                       # number of times the integer registers were read
system.cpu.num_int_register_writes            4673000                       # number of times the integer registers were written
system.cpu.num_load_insts                      635050                       # Number of load instructions
system.cpu.num_mem_refs                       1103503                       # number of memory refs
system.cpu.num_store_insts                     468453                       # Number of store instructions
system.cpu.num_vec_alu_accesses                     0                       # Number of vector alu accesses
system.cpu.num_vec_insts                            0                       # number of vector instructions
system.cpu.num_vec_register_reads                   0                       # number of times the vector registers were read
system.cpu.num_vec_register_writes                  0                       # number of times the vector registers were written
system.cpu.op_class::No_OpClass                 21404      0.37%      0.37% # Class of executed instruction
system.cpu.op_class::IntAlu                   4580761     78.80%     79.17% # Class of executed instruction
system.cpu.op_class::IntMult                    33030      0.57%     79.74% # Class of executed instruction
system.cpu.op_class::IntDiv                     33894      0.58%     80.32% # Class of executed instruction
system.cpu.op_class::FloatAdd                    3240      0.06%     80.38% # Class of executed instruction
system.cpu.op_class::FloatCmp                       0      0.00%     80.38% # Class of executed instruction
system.cpu.op_class::FloatCvt                       0      0.00%     80.38% # Class of executed instruction
system.cpu.op_class::FloatMult                      0      0.00%     80.38% # Class of executed instruction
system.cpu.op_class::FloatMultAcc                   0      0.00%     80.38% # Class of executed instruction
system.cpu.op_class::FloatDiv                       0      0.00%     80.38% # Class of executed instruction
system.cpu.op_class::FloatMisc                      0      0.00%     80.38% # Class of executed instruction
system.cpu.op_class::FloatSqrt                      0      0.00%     80.38% # Class of executed instruction
system.cpu.op_class::SimdAdd                        0      0.00%     80.38% # Class of executed instruction
system.cpu.op_class::SimdAddAcc                     0      0.00%     80.38% # Class of executed instruction
system.cpu.op_class::SimdAlu                      140      0.00%     80.38% # Class of executed instruction
system.cpu.op_class::SimdCmp                       14      0.00%     80.38% # Class of executed instruction
system.cpu.op_class::SimdCvt                     7204      0.12%     80.50% # Class of executed instruction
system.cpu.op_class::SimdMisc                   29844      0.51%     81.02% # Class of executed instruction
system.cpu.op_class::SimdMult                       0      0.00%     81.02% # Class of executed instruction
system.cpu.op_class::SimdMultAcc                    0      0.00%     81.02% # Class of executed instruction
system.cpu.op_class::SimdShift                      0      0.00%     81.02% # Class of executed instruction
system.cpu.op_class::SimdShiftAcc                   0      0.00%     81.02% # Class of executed instruction
system.cpu.op_class::SimdDiv                        0      0.00%     81.02% # Class of executed instruction
system.cpu.op_class::SimdSqrt                       0      0.00%     81.02% # Class of executed instruction
system.cpu.op_class::SimdFloatAdd                   0      0.00%     81.02% # Class of executed instruction
system.cpu.op_class::SimdFloatAlu                   0      0.00%     81.02% # Class of executed instruction
system.cpu.op_class::SimdFloatCmp                   0      0.00%     81.02% # Class of executed instruction
system.cpu.op_class::SimdFloatCvt                   0      0.00%     81.02% # Class of executed instruction
system.cpu.op_class::SimdFloatDiv                   0      0.00%     81.02% # Class of executed instruction
system.cpu.op_class::SimdFloatMisc                  0      0.00%     81.02% # Class of executed instruction
system.cpu.op_class::SimdFloatMult                  0      0.00%     81.02% # Class of executed instruction
system.cpu.op_class::SimdFloatMultAcc               0      0.00%     81.02% # Class of executed instruction
system.cpu.op_class::SimdFloatSqrt                  0      0.00%     81.02% # Class of executed instruction
system.cpu.op_class::SimdReduceAdd                  0      0.00%     81.02% # Class of executed instruction
system.cpu.op_class::SimdReduceAlu                  0      0.00%     81.02% # Class of executed instruction
system.cpu.op_class::SimdReduceCmp                  0      0.00%     81.02% # Class of executed instruction
system.cpu.op_class::SimdFloatReduceAdd             0      0.00%     81.02% # Class of executed instruction
system.cpu.op_class::SimdFloatReduceCmp             0      0.00%     81.02% # Class of executed instruction
system.cpu.op_class::SimdAes                        0      0.00%     81.02% # Class of executed instruction
system.cpu.op_class::SimdAesMix                     0      0.00%     81.02% # Class of executed instruction
system.cpu.op_class::SimdSha1Hash                   0      0.00%     81.02% # Class of executed instruction
system.cpu.op_class::SimdSha1Hash2                  0      0.00%     81.02% # Class of executed instruction
system.cpu.op_class::SimdSha256Hash                 0      0.00%     81.02% # Class of executed instruction
system.cpu.op_class::SimdSha256Hash2                0      0.00%     81.02% # Class of executed instruction
system.cpu.op_class::SimdShaSigma2                  0      0.00%     81.02% # Class of executed instruction
system.cpu.op_class::SimdShaSigma3                  0      0.00%     81.02% # Class of executed instruction
system.cpu.op_class::SimdPredAlu                    0      0.00%     81.02% # Class of executed instruction
system.cpu.op_class::MemRead                   627890     10.80%     91.82% # Class of executed instruction
system.cpu.op_class::MemWrite                  468301      8.06%     99.87% # Class of executed instruction
system.cpu.op_class::FloatMemRead                7160      0.12%    100.00% # Class of executed instruction
system.cpu.op_class::FloatMemWrite                152      0.00%    100.00% # Class of executed instruction
system.cpu.op_class::IprAccess                      0      0.00%    100.00% # Class of executed instruction
system.cpu.op_class::InstPrefetch                   0      0.00%    100.00% # Class of executed instruction
system.cpu.op_class::total                    5813034                       # Class of executed instruction
system.cpu.workload.numSyscalls                    25                       # Number of system calls
system.membus.snoop_filter.hit_multi_requests            0                       # Number of requests hitting in the snoop filter with multiple (>1) holders of the requested data.
system.membus.snoop_filter.hit_multi_snoops            0                       # Number of snoops hitting in the snoop filter with multiple (>1) holders of the requested data.
system.membus.snoop_filter.hit_single_requests            0                       # Number of requests hitting in the snoop filter with a single holder of the requested data.
system.membus.snoop_filter.hit_single_snoops            0                       # Number of snoops hitting in the snoop filter with a single holder of the requested data.
system.membus.snoop_filter.tot_requests             0                       # Total number of requests made to the snoop filter.
system.membus.snoop_filter.tot_snoops               0                       # Total number of snoops made to the snoop filter.
system.membus.trans_dist::ReadReq             4739929                       # Transaction distribution
system.membus.trans_dist::ReadResp            4739928                       # Transaction distribution
system.membus.trans_dist::WriteReq             468238                       # Transaction distribution
system.membus.trans_dist::WriteResp            468238                       # Transaction distribution
system.membus.pkt_count_system.cpu.icache_port::system.mem_ctrl.port      8209153                       # Packet count per connected master and slave (bytes)
system.membus.pkt_count_system.cpu.icache_port::total      8209153                       # Packet count per connected master and slave (bytes)
system.membus.pkt_count_system.memobj.mem_side::system.mem_ctrl.port      2207180                       # Packet count per connected master and slave (bytes)
system.membus.pkt_count_system.memobj.mem_side::total      2207180                       # Packet count per connected master and slave (bytes)
system.membus.pkt_count::total               10416333                       # Packet count per connected master and slave (bytes)
system.membus.pkt_size_system.cpu.icache_port::system.mem_ctrl.port     32836608                       # Cumulative packet size per connected master and slave (bytes)
system.membus.pkt_size_system.cpu.icache_port::total     32836608                       # Cumulative packet size per connected master and slave (bytes)
system.membus.pkt_size_system.memobj.mem_side::system.mem_ctrl.port      6983725                       # Cumulative packet size per connected master and slave (bytes)
system.membus.pkt_size_system.memobj.mem_side::total      6983725                       # Cumulative packet size per connected master and slave (bytes)
system.membus.pkt_size::total                39820333                       # Cumulative packet size per connected master and slave (bytes)
system.membus.snoops                                0                       # Total snoops (count)
system.membus.snoopTraffic                          0                       # Total snoop traffic (bytes)
system.membus.snoop_fanout::samples           5208167                       # Request fanout histogram
system.membus.snoop_fanout::mean                    0                       # Request fanout histogram
system.membus.snoop_fanout::stdev                   0                       # Request fanout histogram
system.membus.snoop_fanout::underflows              0      0.00%      0.00% # Request fanout histogram
system.membus.snoop_fanout::0                 5208167    100.00%    100.00% # Request fanout histogram
system.membus.snoop_fanout::1                       0      0.00%    100.00% # Request fanout histogram
system.membus.snoop_fanout::overflows               0      0.00%    100.00% # Request fanout histogram
system.membus.snoop_fanout::min_value               0                       # Request fanout histogram
system.membus.snoop_fanout::max_value               0                       # Request fanout histogram
system.membus.snoop_fanout::total             5208167                       # Request fanout histogram
system.membus.reqLayer2.occupancy          5676405000                       # Layer occupancy (ticks)
system.membus.reqLayer2.utilization               2.2                       # Layer utilization (%)
system.membus.respLayer1.occupancy         1935875750                       # Layer occupancy (ticks)
system.membus.respLayer1.utilization              0.8                       # Layer utilization (%)
system.membus.respLayer0.occupancy         9328655250                       # Layer occupancy (ticks)
system.membus.respLayer0.utilization              3.6                       # Layer utilization (%)
system.membus.power_state.pwrStateResidencyTicks::UNDEFINED 257036678000                       # Cumulative time (in ticks) in various power states
system.mem_ctrl.bytes_read::.cpu.inst        32836608                       # Number of bytes read from this memory
system.mem_ctrl.bytes_read::.cpu.data         3850431                       # Number of bytes read from this memory
system.mem_ctrl.bytes_read::total            36687039                       # Number of bytes read from this memory
system.mem_ctrl.bytes_inst_read::.cpu.inst     32836608                       # Number of instructions bytes read from this memory
system.mem_ctrl.bytes_inst_read::total       32836608                       # Number of instructions bytes read from this memory
system.mem_ctrl.bytes_written::.cpu.data      3133294                       # Number of bytes written to this memory
system.mem_ctrl.bytes_written::total          3133294                       # Number of bytes written to this memory
system.mem_ctrl.num_reads::.cpu.inst          4104576                       # Number of read requests responded to by this memory
system.mem_ctrl.num_reads::.cpu.data           635352                       # Number of read requests responded to by this memory
system.mem_ctrl.num_reads::total              4739928                       # Number of read requests responded to by this memory
system.mem_ctrl.num_writes::.cpu.data          468238                       # Number of write requests responded to by this memory
system.mem_ctrl.num_writes::total              468238                       # Number of write requests responded to by this memory
system.mem_ctrl.bw_read::.cpu.inst          127750671                       # Total read bandwidth from this memory (bytes/s)
system.mem_ctrl.bw_read::.cpu.data           14980084                       # Total read bandwidth from this memory (bytes/s)
system.mem_ctrl.bw_read::total              142730755                       # Total read bandwidth from this memory (bytes/s)
system.mem_ctrl.bw_inst_read::.cpu.inst     127750671                       # Instruction read bandwidth from this memory (bytes/s)
system.mem_ctrl.bw_inst_read::total         127750671                       # Instruction read bandwidth from this memory (bytes/s)
system.mem_ctrl.bw_write::.cpu.data          12190066                       # Write bandwidth from this memory (bytes/s)
system.mem_ctrl.bw_write::total              12190066                       # Write bandwidth from this memory (bytes/s)
system.mem_ctrl.bw_total::.cpu.inst         127750671                       # Total bandwidth to/from this memory (bytes/s)
system.mem_ctrl.bw_total::.cpu.data          27170150                       # Total bandwidth to/from this memory (bytes/s)
system.mem_ctrl.bw_total::total             154920820                       # Total bandwidth to/from this memory (bytes/s)
system.mem_ctrl.avgPriority_.cpu.inst::samples   4104577.00                       # Average QoS priority value for accepted requests
system.mem_ctrl.avgPriority_.cpu.data::samples    618555.00                       # Average QoS priority value for accepted requests
system.mem_ctrl.priorityMinLatency       0.000000018750                       # per QoS priority minimum request to response latency (s)
system.mem_ctrl.priorityMaxLatency       0.001580885750                       # per QoS priority maximum request to response latency (s)
system.mem_ctrl.numReadWriteTurnArounds          3012                       # Number of turnarounds from READ to WRITE
system.mem_ctrl.numWriteReadTurnArounds          3012                       # Number of turnarounds from WRITE to READ
system.mem_ctrl.numStayReadState              9881021                       # Number of times bus staying in READ state
system.mem_ctrl.numStayWriteState               45223                       # Number of times bus staying in WRITE state
system.mem_ctrl.readReqs                      4739929                       # Number of read requests accepted
system.mem_ctrl.writeReqs                      468238                       # Number of write requests accepted
system.mem_ctrl.readBursts                    4739929                       # Number of DRAM read bursts, including those serviced by the write queue
system.mem_ctrl.writeBursts                    468238                       # Number of DRAM write bursts, including those merged in the write queue
system.mem_ctrl.servicedByWrQ                   65018                       # Number of DRAM read bursts serviced by the write queue
system.mem_ctrl.mergedWrBursts                 420017                       # Number of DRAM write bursts merged with an existing one
system.mem_ctrl.neitherReadNorWriteReqs             0                       # Number of requests that are neither read nor write
system.mem_ctrl.perBankRdBursts::0             344433                       # Per bank write bursts
system.mem_ctrl.perBankRdBursts::1               3847                       # Per bank write bursts
system.mem_ctrl.perBankRdBursts::2               1476                       # Per bank write bursts
system.mem_ctrl.perBankRdBursts::3             823240                       # Per bank write bursts
system.mem_ctrl.perBankRdBursts::4            1367937                       # Per bank write bursts
system.mem_ctrl.perBankRdBursts::5              45391                       # Per bank write bursts
system.mem_ctrl.perBankRdBursts::6               4083                       # Per bank write bursts
system.mem_ctrl.perBankRdBursts::7               7176                       # Per bank write bursts
system.mem_ctrl.perBankRdBursts::8              44840                       # Per bank write bursts
system.mem_ctrl.perBankRdBursts::9             881994                       # Per bank write bursts
system.mem_ctrl.perBankRdBursts::10            813314                       # Per bank write bursts
system.mem_ctrl.perBankRdBursts::11              8796                       # Per bank write bursts
system.mem_ctrl.perBankRdBursts::12             16332                       # Per bank write bursts
system.mem_ctrl.perBankRdBursts::13            236647                       # Per bank write bursts
system.mem_ctrl.perBankRdBursts::14             74619                       # Per bank write bursts
system.mem_ctrl.perBankRdBursts::15               786                       # Per bank write bursts
system.mem_ctrl.perBankWrBursts::0                897                       # Per bank write bursts
system.mem_ctrl.perBankWrBursts::1               1895                       # Per bank write bursts
system.mem_ctrl.perBankWrBursts::2               1140                       # Per bank write bursts
system.mem_ctrl.perBankWrBursts::3                838                       # Per bank write bursts
system.mem_ctrl.perBankWrBursts::4                948                       # Per bank write bursts
system.mem_ctrl.perBankWrBursts::5                956                       # Per bank write bursts
system.mem_ctrl.perBankWrBursts::6               1203                       # Per bank write bursts
system.mem_ctrl.perBankWrBursts::7                957                       # Per bank write bursts
system.mem_ctrl.perBankWrBursts::8               1051                       # Per bank write bursts
system.mem_ctrl.perBankWrBursts::9               1028                       # Per bank write bursts
system.mem_ctrl.perBankWrBursts::10             29230                       # Per bank write bursts
system.mem_ctrl.perBankWrBursts::11              2125                       # Per bank write bursts
system.mem_ctrl.perBankWrBursts::12              1001                       # Per bank write bursts
system.mem_ctrl.perBankWrBursts::13              2866                       # Per bank write bursts
system.mem_ctrl.perBankWrBursts::14              1056                       # Per bank write bursts
system.mem_ctrl.perBankWrBursts::15              1012                       # Per bank write bursts
system.mem_ctrl.avgRdQLen                        1.00                       # Average read queue length when enqueuing
system.mem_ctrl.avgWrQLen                       26.14                       # Average write queue length when enqueuing
system.mem_ctrl.totQLat                   16700504500                       # Total ticks spent queuing
system.mem_ctrl.totBusLat                 23374555000                       # Total ticks spent in databus transfers
system.mem_ctrl.totMemAccLat             104355085750                       # Total ticks spent from burst creation until serviced by the DRAM
system.mem_ctrl.avgQLat                       3572.37                       # Average queueing delay per DRAM burst
system.mem_ctrl.avgBusLat                     5000.00                       # Average bus latency per DRAM burst
system.mem_ctrl.avgMemAccLat                 22322.37                       # Average memory access latency per DRAM burst
system.mem_ctrl.numRdRetry                          0                       # Number of times read queue was full causing retry
system.mem_ctrl.numWrRetry                          0                       # Number of times write queue was full causing retry
system.mem_ctrl.readRowHits                   4191666                       # Number of row buffer hits during reads
system.mem_ctrl.writeRowHits                    37545                       # Number of row buffer hits during writes
system.mem_ctrl.readRowHitRate                  89.66                       # Row buffer hit rate for reads
system.mem_ctrl.writeRowHitRate                 77.86                       # Row buffer hit rate for writes
system.mem_ctrl.readPktSize::0                  92236                       # Read request sizes (log2)
system.mem_ctrl.readPktSize::1                   4860                       # Read request sizes (log2)
system.mem_ctrl.readPktSize::2                 139242                       # Read request sizes (log2)
system.mem_ctrl.readPktSize::3                4503591                       # Read request sizes (log2)
system.mem_ctrl.readPktSize::4                      0                       # Read request sizes (log2)
system.mem_ctrl.readPktSize::5                      0                       # Read request sizes (log2)
system.mem_ctrl.readPktSize::6                      0                       # Read request sizes (log2)
system.mem_ctrl.writePktSize::0                 30688                       # Write request sizes (log2)
system.mem_ctrl.writePktSize::1                  1623                       # Write request sizes (log2)
system.mem_ctrl.writePktSize::2                 97014                       # Write request sizes (log2)
system.mem_ctrl.writePktSize::3                338913                       # Write request sizes (log2)
system.mem_ctrl.writePktSize::4                     0                       # Write request sizes (log2)
system.mem_ctrl.writePktSize::5                     0                       # Write request sizes (log2)
system.mem_ctrl.writePktSize::6                     0                       # Write request sizes (log2)
system.mem_ctrl.rdQLenPdf::0                  4674608                       # What read queue length does an incoming req see
system.mem_ctrl.rdQLenPdf::1                      303                       # What read queue length does an incoming req see
system.mem_ctrl.rdQLenPdf::2                        0                       # What read queue length does an incoming req see
system.mem_ctrl.rdQLenPdf::3                        0                       # What read queue length does an incoming req see
system.mem_ctrl.rdQLenPdf::4                        0                       # What read queue length does an incoming req see
system.mem_ctrl.rdQLenPdf::5                        0                       # What read queue length does an incoming req see
system.mem_ctrl.rdQLenPdf::6                        0                       # What read queue length does an incoming req see
system.mem_ctrl.rdQLenPdf::7                        0                       # What read queue length does an incoming req see
system.mem_ctrl.rdQLenPdf::8                        0                       # What read queue length does an incoming req see
system.mem_ctrl.rdQLenPdf::9                        0                       # What read queue length does an incoming req see
system.mem_ctrl.rdQLenPdf::10                       0                       # What read queue length does an incoming req see
system.mem_ctrl.rdQLenPdf::11                       0                       # What read queue length does an incoming req see
system.mem_ctrl.rdQLenPdf::12                       0                       # What read queue length does an incoming req see
system.mem_ctrl.rdQLenPdf::13                       0                       # What read queue length does an incoming req see
system.mem_ctrl.rdQLenPdf::14                       0                       # What read queue length does an incoming req see
system.mem_ctrl.rdQLenPdf::15                       0                       # What read queue length does an incoming req see
system.mem_ctrl.rdQLenPdf::16                       0                       # What read queue length does an incoming req see
system.mem_ctrl.rdQLenPdf::17                       0                       # What read queue length does an incoming req see
system.mem_ctrl.rdQLenPdf::18                       0                       # What read queue length does an incoming req see
system.mem_ctrl.rdQLenPdf::19                       0                       # What read queue length does an incoming req see
system.mem_ctrl.rdQLenPdf::20                       0                       # What read queue length does an incoming req see
system.mem_ctrl.rdQLenPdf::21                       0                       # What read queue length does an incoming req see
system.mem_ctrl.rdQLenPdf::22                       0                       # What read queue length does an incoming req see
system.mem_ctrl.rdQLenPdf::23                       0                       # What read queue length does an incoming req see
system.mem_ctrl.rdQLenPdf::24                       0                       # What read queue length does an incoming req see
system.mem_ctrl.rdQLenPdf::25                       0                       # What read queue length does an incoming req see
system.mem_ctrl.rdQLenPdf::26                       0                       # What read queue length does an incoming req see
system.mem_ctrl.rdQLenPdf::27                       0                       # What read queue length does an incoming req see
system.mem_ctrl.rdQLenPdf::28                       0                       # What read queue length does an incoming req see
system.mem_ctrl.rdQLenPdf::29                       0                       # What read queue length does an incoming req see
system.mem_ctrl.rdQLenPdf::30                       0                       # What read queue length does an incoming req see
system.mem_ctrl.rdQLenPdf::31                       0                       # What read queue length does an incoming req see
system.mem_ctrl.wrQLenPdf::0                        1                       # What write queue length does an incoming req see
system.mem_ctrl.wrQLenPdf::1                        1                       # What write queue length does an incoming req see
system.mem_ctrl.wrQLenPdf::2                        1                       # What write queue length does an incoming req see
system.mem_ctrl.wrQLenPdf::3                        1                       # What write queue length does an incoming req see
system.mem_ctrl.wrQLenPdf::4                        1                       # What write queue length does an incoming req see
system.mem_ctrl.wrQLenPdf::5                        1                       # What write queue length does an incoming req see
system.mem_ctrl.wrQLenPdf::6                        1                       # What write queue length does an incoming req see
system.mem_ctrl.wrQLenPdf::7                        1                       # What write queue length does an incoming req see
system.mem_ctrl.wrQLenPdf::8                        1                       # What write queue length does an incoming req see
system.mem_ctrl.wrQLenPdf::9                        1                       # What write queue length does an incoming req see
system.mem_ctrl.wrQLenPdf::10                       1                       # What write queue length does an incoming req see
system.mem_ctrl.wrQLenPdf::11                       1                       # What write queue length does an incoming req see
system.mem_ctrl.wrQLenPdf::12                       1                       # What write queue length does an incoming req see
system.mem_ctrl.wrQLenPdf::13                       1                       # What write queue length does an incoming req see
system.mem_ctrl.wrQLenPdf::14                       1                       # What write queue length does an incoming req see
system.mem_ctrl.wrQLenPdf::15                       6                       # What write queue length does an incoming req see
system.mem_ctrl.wrQLenPdf::16                       6                       # What write queue length does an incoming req see
system.mem_ctrl.wrQLenPdf::17                    3013                       # What write queue length does an incoming req see
system.mem_ctrl.wrQLenPdf::18                    3012                       # What write queue length does an incoming req see
system.mem_ctrl.wrQLenPdf::19                    3013                       # What write queue length does an incoming req see
system.mem_ctrl.wrQLenPdf::20                    3012                       # What write queue length does an incoming req see
system.mem_ctrl.wrQLenPdf::21                    3012                       # What write queue length does an incoming req see
system.mem_ctrl.wrQLenPdf::22                    3012                       # What write queue length does an incoming req see
system.mem_ctrl.wrQLenPdf::23                    3012                       # What write queue length does an incoming req see
system.mem_ctrl.wrQLenPdf::24                    3012                       # What write queue length does an incoming req see
system.mem_ctrl.wrQLenPdf::25                    3012                       # What write queue length does an incoming req see
system.mem_ctrl.wrQLenPdf::26                    3012                       # What write queue length does an incoming req see
system.mem_ctrl.wrQLenPdf::27                    3012                       # What write queue length does an incoming req see
system.mem_ctrl.wrQLenPdf::28                    3012                       # What write queue length does an incoming req see
system.mem_ctrl.wrQLenPdf::29                    3012                       # What write queue length does an incoming req see
system.mem_ctrl.wrQLenPdf::30                    3012                       # What write queue length does an incoming req see
system.mem_ctrl.wrQLenPdf::31                    3012                       # What write queue length does an incoming req see
system.mem_ctrl.wrQLenPdf::32                    3012                       # What write queue length does an incoming req see
system.mem_ctrl.wrQLenPdf::33                       0                       # What write queue length does an incoming req see
system.mem_ctrl.wrQLenPdf::34                       0                       # What write queue length does an incoming req see
system.mem_ctrl.wrQLenPdf::35                       0                       # What write queue length does an incoming req see
system.mem_ctrl.wrQLenPdf::36                       0                       # What write queue length does an incoming req see
system.mem_ctrl.wrQLenPdf::37                       0                       # What write queue length does an incoming req see
system.mem_ctrl.wrQLenPdf::38                       0                       # What write queue length does an incoming req see
system.mem_ctrl.wrQLenPdf::39                       0                       # What write queue length does an incoming req see
system.mem_ctrl.wrQLenPdf::40                       0                       # What write queue length does an incoming req see
system.mem_ctrl.wrQLenPdf::41                       0                       # What write queue length does an incoming req see
system.mem_ctrl.wrQLenPdf::42                       0                       # What write queue length does an incoming req see
system.mem_ctrl.wrQLenPdf::43                       0                       # What write queue length does an incoming req see
system.mem_ctrl.wrQLenPdf::44                       0                       # What write queue length does an incoming req see
system.mem_ctrl.wrQLenPdf::45                       0                       # What write queue length does an incoming req see
system.mem_ctrl.wrQLenPdf::46                       0                       # What write queue length does an incoming req see
system.mem_ctrl.wrQLenPdf::47                       0                       # What write queue length does an incoming req see
system.mem_ctrl.wrQLenPdf::48                       0                       # What write queue length does an incoming req see
system.mem_ctrl.wrQLenPdf::49                       0                       # What write queue length does an incoming req see
system.mem_ctrl.wrQLenPdf::50                       0                       # What write queue length does an incoming req see
system.mem_ctrl.wrQLenPdf::51                       0                       # What write queue length does an incoming req see
system.mem_ctrl.wrQLenPdf::52                       0                       # What write queue length does an incoming req see
system.mem_ctrl.wrQLenPdf::53                       0                       # What write queue length does an incoming req see
system.mem_ctrl.wrQLenPdf::54                       0                       # What write queue length does an incoming req see
system.mem_ctrl.wrQLenPdf::55                       0                       # What write queue length does an incoming req see
system.mem_ctrl.wrQLenPdf::56                       0                       # What write queue length does an incoming req see
system.mem_ctrl.wrQLenPdf::57                       0                       # What write queue length does an incoming req see
system.mem_ctrl.wrQLenPdf::58                       0                       # What write queue length does an incoming req see
system.mem_ctrl.wrQLenPdf::59                       0                       # What write queue length does an incoming req see
system.mem_ctrl.wrQLenPdf::60                       0                       # What write queue length does an incoming req see
system.mem_ctrl.wrQLenPdf::61                       0                       # What write queue length does an incoming req see
system.mem_ctrl.wrQLenPdf::62                       0                       # What write queue length does an incoming req see
system.mem_ctrl.wrQLenPdf::63                       0                       # What write queue length does an incoming req see
system.mem_ctrl.bytesPerActivate::samples       493895                       # Bytes accessed per row activation
system.mem_ctrl.bytesPerActivate::mean     612.026313                       # Bytes accessed per row activation
system.mem_ctrl.bytesPerActivate::gmean    380.824949                       # Bytes accessed per row activation
system.mem_ctrl.bytesPerActivate::stdev    422.618353                       # Bytes accessed per row activation
system.mem_ctrl.bytesPerActivate::0-127        117388     23.77%     23.77% # Bytes accessed per row activation
system.mem_ctrl.bytesPerActivate::128-255        42535      8.61%     32.38% # Bytes accessed per row activation
system.mem_ctrl.bytesPerActivate::256-383        31527      6.38%     38.76% # Bytes accessed per row activation
system.mem_ctrl.bytesPerActivate::384-511        20881      4.23%     42.99% # Bytes accessed per row activation
system.mem_ctrl.bytesPerActivate::512-639        14880      3.01%     46.00% # Bytes accessed per row activation
system.mem_ctrl.bytesPerActivate::640-767        17747      3.59%     49.60% # Bytes accessed per row activation
system.mem_ctrl.bytesPerActivate::768-895        14412      2.92%     52.52% # Bytes accessed per row activation
system.mem_ctrl.bytesPerActivate::896-1023        12136      2.46%     54.97% # Bytes accessed per row activation
system.mem_ctrl.bytesPerActivate::1024-1151       222389     45.03%    100.00% # Bytes accessed per row activation
system.mem_ctrl.bytesPerActivate::total        493895                       # Bytes accessed per row activation
system.mem_ctrl.rdPerTurnAround::samples         3012                       # Reads before turning the bus around for writes
system.mem_ctrl.rdPerTurnAround::mean     1552.084661                       # Reads before turning the bus around for writes
system.mem_ctrl.rdPerTurnAround::gmean    1230.470639                       # Reads before turning the bus around for writes
system.mem_ctrl.rdPerTurnAround::stdev     958.352012                       # Reads before turning the bus around for writes
system.mem_ctrl.rdPerTurnAround::256-511          350     11.62%     11.62% # Reads before turning the bus around for writes
system.mem_ctrl.rdPerTurnAround::512-767          957     31.77%     43.39% # Reads before turning the bus around for writes
system.mem_ctrl.rdPerTurnAround::768-1023           49      1.63%     45.02% # Reads before turning the bus around for writes
system.mem_ctrl.rdPerTurnAround::1024-1279           14      0.46%     45.48% # Reads before turning the bus around for writes
system.mem_ctrl.rdPerTurnAround::1280-1535           99      3.29%     48.77% # Reads before turning the bus around for writes
system.mem_ctrl.rdPerTurnAround::1536-1791           44      1.46%     50.23% # Reads before turning the bus around for writes
system.mem_ctrl.rdPerTurnAround::1792-2047           15      0.50%     50.73% # Reads before turning the bus around for writes
system.mem_ctrl.rdPerTurnAround::2048-2303          471     15.64%     66.37% # Reads before turning the bus around for writes
system.mem_ctrl.rdPerTurnAround::2304-2559          770     25.56%     91.93% # Reads before turning the bus around for writes
system.mem_ctrl.rdPerTurnAround::2560-2815          151      5.01%     96.95% # Reads before turning the bus around for writes
system.mem_ctrl.rdPerTurnAround::2816-3071           61      2.03%     98.97% # Reads before turning the bus around for writes
system.mem_ctrl.rdPerTurnAround::4096-4351            2      0.07%     99.04% # Reads before turning the bus around for writes
system.mem_ctrl.rdPerTurnAround::4608-4863            1      0.03%     99.07% # Reads before turning the bus around for writes
system.mem_ctrl.rdPerTurnAround::4864-5119           13      0.43%     99.50% # Reads before turning the bus around for writes
system.mem_ctrl.rdPerTurnAround::5120-5375           13      0.43%     99.93% # Reads before turning the bus around for writes
system.mem_ctrl.rdPerTurnAround::5376-5631            1      0.03%     99.97% # Reads before turning the bus around for writes
system.mem_ctrl.rdPerTurnAround::5888-6143            1      0.03%    100.00% # Reads before turning the bus around for writes
system.mem_ctrl.rdPerTurnAround::total           3012                       # Reads before turning the bus around for writes
system.mem_ctrl.wrPerTurnAround::samples         3012                       # Writes before turning the bus around for reads
system.mem_ctrl.wrPerTurnAround::mean       16.003652                       # Writes before turning the bus around for reads
system.mem_ctrl.wrPerTurnAround::gmean      16.003416                       # Writes before turning the bus around for reads
system.mem_ctrl.wrPerTurnAround::stdev       0.091047                       # Writes before turning the bus around for reads
system.mem_ctrl.wrPerTurnAround::16              3007     99.83%     99.83% # Writes before turning the bus around for reads
system.mem_ctrl.wrPerTurnAround::18                 4      0.13%     99.97% # Writes before turning the bus around for reads
system.mem_ctrl.wrPerTurnAround::19                 1      0.03%    100.00% # Writes before turning the bus around for reads
system.mem_ctrl.wrPerTurnAround::total           3012                       # Writes before turning the bus around for reads
system.mem_ctrl.bytesReadDRAM               299194304                       # Total number of bytes read from DRAM
system.mem_ctrl.bytesReadWrQ                  4161152                       # Total number of bytes read from write queue
system.mem_ctrl.bytesWritten                  3084992                       # Total number of bytes written to DRAM
system.mem_ctrl.bytesReadSys                 36687047                       # Total read bytes from the system interface side
system.mem_ctrl.bytesWrittenSys               3133294                       # Total written bytes from the system interface side
system.mem_ctrl.avgRdBW                       1164.01                       # Average DRAM read bandwidth in MiByte/s
system.mem_ctrl.avgWrBW                         12.00                       # Average achieved write bandwidth in MiByte/s
system.mem_ctrl.avgRdBWSys                     142.73                       # Average system read bandwidth in MiByte/s
system.mem_ctrl.avgWrBWSys                      12.19                       # Average system write bandwidth in MiByte/s
system.mem_ctrl.peakBW                       12800.00                       # Theoretical peak bandwidth in MiByte/s
system.mem_ctrl.busUtil                          9.19                       # Data bus utilization in percentage
system.mem_ctrl.busUtilRead                      9.09                       # Data bus utilization in percentage for reads
system.mem_ctrl.busUtilWrite                     0.09                       # Data bus utilization in percentage for writes
system.mem_ctrl.totGap                   257036601000                       # Total gap between requests
system.mem_ctrl.avgGap                       49352.60                       # Average gap between requests
system.mem_ctrl.masterReadBytes::.cpu.inst     32836616                       # Per-master bytes read from memory
system.mem_ctrl.masterReadBytes::.cpu.data      3419494                       # Per-master bytes read from memory
system.mem_ctrl.masterWriteBytes::.cpu.data       328981                       # Per-master bytes write to memory
system.mem_ctrl.masterReadRate::.cpu.inst 127750701.788948565722                       # Per-master bytes read from memory rate (Bytes/sec)
system.mem_ctrl.masterReadRate::.cpu.data 13303525.499189652503                       # Per-master bytes read from memory rate (Bytes/sec)
system.mem_ctrl.masterWriteRate::.cpu.data 1279899.050049191806                       # Per-master bytes write to memory rate (Bytes/sec)
system.mem_ctrl.masterReadAccesses::.cpu.inst      4104577                       # Per-master read serviced memory accesses
system.mem_ctrl.masterReadAccesses::.cpu.data       635352                       # Per-master read serviced memory accesses
system.mem_ctrl.masterWriteAccesses::.cpu.data       468238                       # Per-master write serviced memory accesses
system.mem_ctrl.masterReadTotalLat::.cpu.inst  89708837500                       # Per-master read total memory access latency
system.mem_ctrl.masterReadTotalLat::.cpu.data  14646248250                       # Per-master read total memory access latency
system.mem_ctrl.masterWriteTotalLat::.cpu.data 6652725776750                       # Per-master write total memory access latency
system.mem_ctrl.masterReadAvgLat::.cpu.inst     21855.81                       # Per-master read average memory access latency
system.mem_ctrl.masterReadAvgLat::.cpu.data     23052.18                       # Per-master read average memory access latency
system.mem_ctrl.masterWriteAvgLat::.cpu.data  14208000.58                       # Per-master write average memory access latency
system.mem_ctrl.pageHitRate                     89.54                       # Row buffer hit rate, read and write combined
system.mem_ctrl.rank1.actEnergy            1926643320                       # Energy for activate commands per rank (pJ)
system.mem_ctrl.rank1.preEnergy            1024016235                       # Energy for precharge commands per rank (pJ)
system.mem_ctrl.rank1.readEnergy          14832121920                       # Energy for read commands per rank (pJ)
system.mem_ctrl.rank1.writeEnergy           205506180                       # Energy for write commands per rank (pJ)
system.mem_ctrl.rank1.refreshEnergy      20289881040.000004                       # Energy for refresh commands per rank (pJ)
system.mem_ctrl.rank1.actBackEnergy      112236249000                       # Energy for active background per rank (pJ)
system.mem_ctrl.rank1.preBackEnergy        4187348640                       # Energy for precharge background per rank (pJ)
system.mem_ctrl.rank1.actPowerDownEnergy            0                       # Energy for active power-down per rank (pJ)
system.mem_ctrl.rank1.prePowerDownEnergy            0                       # Energy for precharge power-down per rank (pJ)
system.mem_ctrl.rank1.selfRefreshEnergy             0                       # Energy for self refresh per rank (pJ)
system.mem_ctrl.rank1.totalEnergy        154701766335                       # Total energy per rank (pJ)
system.mem_ctrl.rank1.averagePower         601.866502                       # Core power per rank (mW)
system.mem_ctrl.rank1.totalIdleTime                 0                       # Total Idle time Per DRAM Rank
system.mem_ctrl.rank1.memoryStateTime::IDLE   9566234000                       # Time in different power states
system.mem_ctrl.rank1.memoryStateTime::REF   8582860000                       # Time in different power states
system.mem_ctrl.rank1.memoryStateTime::SREF            0                       # Time in different power states
system.mem_ctrl.rank1.memoryStateTime::PRE_PDN            0                       # Time in different power states
system.mem_ctrl.rank1.memoryStateTime::ACT 238887584000                       # Time in different power states
system.mem_ctrl.rank1.memoryStateTime::ACT_PDN            0                       # Time in different power states
system.mem_ctrl.rank0.actEnergy            1599824100                       # Energy for activate commands per rank (pJ)
system.mem_ctrl.rank0.preEnergy             850315290                       # Energy for precharge commands per rank (pJ)
system.mem_ctrl.rank0.readEnergy          18546742620                       # Energy for read commands per rank (pJ)
system.mem_ctrl.rank0.writeEnergy            46113480                       # Energy for write commands per rank (pJ)
system.mem_ctrl.rank0.refreshEnergy      20289881040.000004                       # Energy for refresh commands per rank (pJ)
system.mem_ctrl.rank0.actBackEnergy       92263371480                       # Energy for active background per rank (pJ)
system.mem_ctrl.rank0.preBackEnergy       21006613920                       # Energy for precharge background per rank (pJ)
system.mem_ctrl.rank0.actPowerDownEnergy            0                       # Energy for active power-down per rank (pJ)
system.mem_ctrl.rank0.prePowerDownEnergy            0                       # Energy for precharge power-down per rank (pJ)
system.mem_ctrl.rank0.selfRefreshEnergy             0                       # Energy for self refresh per rank (pJ)
system.mem_ctrl.rank0.totalEnergy        154602861930                       # Total energy per rank (pJ)
system.mem_ctrl.rank0.averagePower         601.481715                       # Core power per rank (mW)
system.mem_ctrl.rank0.totalIdleTime                 0                       # Total Idle time Per DRAM Rank
system.mem_ctrl.rank0.memoryStateTime::IDLE  52543281000                       # Time in different power states
system.mem_ctrl.rank0.memoryStateTime::REF   8582860000                       # Time in different power states
system.mem_ctrl.rank0.memoryStateTime::SREF            0                       # Time in different power states
system.mem_ctrl.rank0.memoryStateTime::PRE_PDN            0                       # Time in different power states
system.mem_ctrl.rank0.memoryStateTime::ACT 195910537000                       # Time in different power states
system.mem_ctrl.rank0.memoryStateTime::ACT_PDN            0                       # Time in different power states
system.mem_ctrl.power_state.pwrStateResidencyTicks::UNDEFINED 257036678000                       # Cumulative time (in ticks) in various power states
system.cache.blocked_cycles::no_mshrs               0                       # number of cycles access was blocked
system.cache.blocked_cycles::no_targets             0                       # number of cycles access was blocked
system.cache.blocked::no_mshrs                      0                       # number of cycles access was blocked
system.cache.blocked::no_targets                    0                       # number of cycles access was blocked
system.cache.avg_blocked_cycles::no_mshrs          nan                       # average number of cycles each access was blocked
system.cache.avg_blocked_cycles::no_targets          nan                       # average number of cycles each access was blocked
system.cache.replacements                           0                       # number of replacements
system.cache.power_state.pwrStateResidencyTicks::UNDEFINED 257036678000                       # Cumulative time (in ticks) in various power states
system.cache.tags.tagsinuse                         0                       # Cycle average of tags in use
system.cache.tags.total_refs                        0                       # Total number of references to valid blocks.
system.cache.tags.sampled_refs                      0                       # Sample count of references to valid blocks.
system.cache.tags.avg_refs                        nan                       # Average number of references to valid blocks.
system.cache.tags.warmup_cycle                      0                       # Cycle when the warmup percentage was hit.
system.cache.tags.tag_accesses                      0                       # Number of tag accesses
system.cache.tags.data_accesses                     0                       # Number of data accesses
system.cache.tags.power_state.pwrStateResidencyTicks::UNDEFINED 257036678000                       # Cumulative time (in ticks) in various power states
system.clk_domain.clock                          1000                       # Clock period in ticks
system.clk_domain.voltage_domain.voltage            1                       # Voltage in Volts
system.cachebus.snoops                              0                       # Total snoops (count)
system.cachebus.snoopTraffic                        0                       # Total snoop traffic (bytes)
system.cachebus.snoop_fanout::samples               0                       # Request fanout histogram
system.cachebus.snoop_fanout::mean                nan                       # Request fanout histogram
system.cachebus.snoop_fanout::stdev               nan                       # Request fanout histogram
system.cachebus.snoop_fanout::underflows            0                       # Request fanout histogram
system.cachebus.snoop_fanout::0                     0                       # Request fanout histogram
system.cachebus.snoop_fanout::overflows             0                       # Request fanout histogram
system.cachebus.snoop_fanout::min_value             0                       # Request fanout histogram
system.cachebus.snoop_fanout::max_value             0                       # Request fanout histogram
system.cachebus.snoop_fanout::total                 0                       # Request fanout histogram
system.cachebus.power_state.pwrStateResidencyTicks::UNDEFINED 257036678000                       # Cumulative time (in ticks) in various power states
system.cpu.dtb.walker.power_state.pwrStateResidencyTicks::UNDEFINED 257036678000                       # Cumulative time (in ticks) in various power states
system.cpu.interrupts.clk_domain.clock          16000                       # Clock period in ticks
system.cpu.itb.walker.power_state.pwrStateResidencyTicks::UNDEFINED 257036678000                       # Cumulative time (in ticks) in various power states
system.cpu.power_state.numTransitions               1                       # Number of power state transitions
system.cpu.power_state.pwrStateResidencyTicks::ON 257036678000                       # Cumulative time (in ticks) in various power states

---------- End Simulation Statistics   ----------
