
---------- Begin Simulation Statistics ----------
final_tick                                 3713913000                       # Number of ticks from beginning of simulation (restored from checkpoints and never reset)
host_inst_rate                                 255451                       # Simulator instruction rate (inst/s)
host_mem_usage                                1294116                       # Number of bytes of host memory used
host_op_rate                                   453673                       # Simulator op (including micro ops) rate (op/s)
host_seconds                                     3.92                       # Real time elapsed on the host
host_tick_rate                              948591269                       # Simulator tick rate (ticks/s)
sim_freq                                 1000000000000                       # Frequency of simulated ticks
sim_insts                                     1000080                       # Number of instructions simulated
sim_ops                                       1776195                       # Number of ops (including micro ops) simulated
sim_seconds                                  0.003714                       # Number of seconds simulated
sim_ticks                                  3713913000                       # Number of ticks simulated
system.cpu.Branches                            188577                       # Number of branches fetched
system.cpu.committedInsts                     1000080                       # Number of instructions committed
system.cpu.committedOps                       1776195                       # Number of ops (including micro ops) committed
system.cpu.dtb.rdAccesses                      203360                       # TLB accesses on read requests
system.cpu.dtb.rdMisses                            20                       # TLB misses on read requests
system.cpu.dtb.wrAccesses                       99868                       # TLB accesses on write requests
system.cpu.dtb.wrMisses                            37                       # TLB misses on write requests
system.cpu.idle_fraction                            0                       # Percentage of idle cycles
system.cpu.itb.rdAccesses                           0                       # TLB accesses on read requests
system.cpu.itb.rdMisses                             0                       # TLB misses on read requests
system.cpu.itb.wrAccesses                     1268648                       # TLB accesses on write requests
system.cpu.itb.wrMisses                            85                       # TLB misses on write requests
system.cpu.not_idle_fraction                        1                       # Percentage of non-idle cycles
system.cpu.numCycles                          3713902                       # number of cpu cycles simulated
system.cpu.numWorkItemsCompleted                    0                       # number of work items this cpu completed
system.cpu.numWorkItemsStarted                      0                       # number of work items this cpu started
system.cpu.num_busy_cycles                    3713902                       # Number of busy cycles
system.cpu.num_cc_register_reads              1305185                       # number of times the CC registers were read
system.cpu.num_cc_register_writes             1000648                       # number of times the CC registers were written
system.cpu.num_conditional_control_insts       166920                       # number of instructions that are conditional controls
system.cpu.num_fp_alu_accesses                  11972                       # Number of float alu accesses
system.cpu.num_fp_insts                         11972                       # number of float instructions
system.cpu.num_fp_register_reads                15096                       # number of times the floating registers were read
system.cpu.num_fp_register_writes                5598                       # number of times the floating registers were written
system.cpu.num_func_calls                       10855                       # number of times a function call or return occured
system.cpu.num_idle_cycles                          0                       # Number of idle cycles
system.cpu.num_int_alu_accesses               1761850                       # Number of integer alu accesses
system.cpu.num_int_insts                      1761850                       # number of integer instructions
system.cpu.num_int_register_reads             3292296                       # number of times the integer registers were read
system.cpu.num_int_register_writes            1489105                       # number of times the integer registers were written
system.cpu.num_load_insts                      203273                       # Number of load instructions
system.cpu.num_mem_refs                        303063                       # number of memory refs
system.cpu.num_store_insts                      99790                       # Number of store instructions
system.cpu.num_vec_alu_accesses                     0                       # Number of vector alu accesses
system.cpu.num_vec_insts                            0                       # number of vector instructions
system.cpu.num_vec_register_reads                   0                       # number of times the vector registers were read
system.cpu.num_vec_register_writes                  0                       # number of times the vector registers were written
system.cpu.op_class::No_OpClass                  7704      0.43%      0.43% # Class of executed instruction
system.cpu.op_class::IntAlu                   1447378     81.49%     81.92% # Class of executed instruction
system.cpu.op_class::IntMult                    11305      0.64%     82.56% # Class of executed instruction
system.cpu.op_class::IntDiv                      1859      0.10%     82.66% # Class of executed instruction
system.cpu.op_class::FloatAdd                     597      0.03%     82.70% # Class of executed instruction
system.cpu.op_class::FloatCmp                       0      0.00%     82.70% # Class of executed instruction
system.cpu.op_class::FloatCvt                       0      0.00%     82.70% # Class of executed instruction
system.cpu.op_class::FloatMult                      0      0.00%     82.70% # Class of executed instruction
system.cpu.op_class::FloatMultAcc                   0      0.00%     82.70% # Class of executed instruction
system.cpu.op_class::FloatDiv                       0      0.00%     82.70% # Class of executed instruction
system.cpu.op_class::FloatMisc                      0      0.00%     82.70% # Class of executed instruction
system.cpu.op_class::FloatSqrt                      0      0.00%     82.70% # Class of executed instruction
system.cpu.op_class::SimdAdd                       52      0.00%     82.70% # Class of executed instruction
system.cpu.op_class::SimdAddAcc                     0      0.00%     82.70% # Class of executed instruction
system.cpu.op_class::SimdAlu                     1034      0.06%     82.76% # Class of executed instruction
system.cpu.op_class::SimdCmp                       12      0.00%     82.76% # Class of executed instruction
system.cpu.op_class::SimdCvt                      532      0.03%     82.79% # Class of executed instruction
system.cpu.op_class::SimdMisc                    2179      0.12%     82.91% # Class of executed instruction
system.cpu.op_class::SimdMult                       0      0.00%     82.91% # Class of executed instruction
system.cpu.op_class::SimdMultAcc                    0      0.00%     82.91% # Class of executed instruction
system.cpu.op_class::SimdShift                     78      0.00%     82.91% # Class of executed instruction
system.cpu.op_class::SimdShiftAcc                   0      0.00%     82.91% # Class of executed instruction
system.cpu.op_class::SimdDiv                        0      0.00%     82.91% # Class of executed instruction
system.cpu.op_class::SimdSqrt                       0      0.00%     82.91% # Class of executed instruction
system.cpu.op_class::SimdFloatAdd                 207      0.01%     82.93% # Class of executed instruction
system.cpu.op_class::SimdFloatAlu                   0      0.00%     82.93% # Class of executed instruction
system.cpu.op_class::SimdFloatCmp                   0      0.00%     82.93% # Class of executed instruction
system.cpu.op_class::SimdFloatCvt                 207      0.01%     82.94% # Class of executed instruction
system.cpu.op_class::SimdFloatDiv                   0      0.00%     82.94% # Class of executed instruction
system.cpu.op_class::SimdFloatMisc                  0      0.00%     82.94% # Class of executed instruction
system.cpu.op_class::SimdFloatMult                  0      0.00%     82.94% # Class of executed instruction
system.cpu.op_class::SimdFloatMultAcc               0      0.00%     82.94% # Class of executed instruction
system.cpu.op_class::SimdFloatSqrt                  0      0.00%     82.94% # Class of executed instruction
system.cpu.op_class::SimdReduceAdd                  0      0.00%     82.94% # Class of executed instruction
system.cpu.op_class::SimdReduceAlu                  0      0.00%     82.94% # Class of executed instruction
system.cpu.op_class::SimdReduceCmp                  0      0.00%     82.94% # Class of executed instruction
system.cpu.op_class::SimdFloatReduceAdd             0      0.00%     82.94% # Class of executed instruction
system.cpu.op_class::SimdFloatReduceCmp             0      0.00%     82.94% # Class of executed instruction
system.cpu.op_class::SimdAes                        0      0.00%     82.94% # Class of executed instruction
system.cpu.op_class::SimdAesMix                     0      0.00%     82.94% # Class of executed instruction
system.cpu.op_class::SimdSha1Hash                   0      0.00%     82.94% # Class of executed instruction
system.cpu.op_class::SimdSha1Hash2                  0      0.00%     82.94% # Class of executed instruction
system.cpu.op_class::SimdSha256Hash                 0      0.00%     82.94% # Class of executed instruction
system.cpu.op_class::SimdSha256Hash2                0      0.00%     82.94% # Class of executed instruction
system.cpu.op_class::SimdShaSigma2                  0      0.00%     82.94% # Class of executed instruction
system.cpu.op_class::SimdShaSigma3                  0      0.00%     82.94% # Class of executed instruction
system.cpu.op_class::SimdPredAlu                    0      0.00%     82.94% # Class of executed instruction
system.cpu.op_class::MemRead                   202326     11.39%     94.33% # Class of executed instruction
system.cpu.op_class::MemWrite                   94272      5.31%     99.64% # Class of executed instruction
system.cpu.op_class::FloatMemRead                 947      0.05%     99.69% # Class of executed instruction
system.cpu.op_class::FloatMemWrite               5518      0.31%    100.00% # Class of executed instruction
system.cpu.op_class::IprAccess                      0      0.00%    100.00% # Class of executed instruction
system.cpu.op_class::InstPrefetch                   0      0.00%    100.00% # Class of executed instruction
system.cpu.op_class::total                    1776207                       # Class of executed instruction
system.cpu.workload.numSyscalls                    42                       # Number of system calls
system.dynamic_cache.flushTicks                     0                       # Ticks taken to flush
system.dynamic_cache.numFlushes                     0                       # Number of Flushes Taken
system.cache_small.blocked_cycles::no_mshrs            0                       # number of cycles access was blocked
system.cache_small.blocked_cycles::no_targets            0                       # number of cycles access was blocked
system.cache_small.blocked::no_mshrs                0                       # number of cycles access was blocked
system.cache_small.blocked::no_targets              0                       # number of cycles access was blocked
system.cache_small.avg_blocked_cycles::no_mshrs          nan                       # average number of cycles each access was blocked
system.cache_small.avg_blocked_cycles::no_targets          nan                       # average number of cycles each access was blocked
system.cache_small.replacements                     0                       # number of replacements
system.cache_small.power_state.pwrStateResidencyTicks::UNDEFINED   3713913000                       # Cumulative time (in ticks) in various power states
system.cache_small.tags.tagsinuse                   0                       # Cycle average of tags in use
system.cache_small.tags.total_refs                  0                       # Total number of references to valid blocks.
system.cache_small.tags.sampled_refs                0                       # Sample count of references to valid blocks.
system.cache_small.tags.avg_refs                  nan                       # Average number of references to valid blocks.
system.cache_small.tags.warmup_cycle                0                       # Cycle when the warmup percentage was hit.
system.cache_small.tags.tag_accesses                0                       # Number of tag accesses
system.cache_small.tags.data_accesses               0                       # Number of data accesses
system.cache_small.tags.power_state.pwrStateResidencyTicks::UNDEFINED   3713913000                       # Cumulative time (in ticks) in various power states
system.icache.demand_hits::.cpu.inst          1261897                       # number of demand (read+write) hits
system.icache.demand_hits::total              1261897                       # number of demand (read+write) hits
system.icache.overall_hits::.cpu.inst         1261897                       # number of overall hits
system.icache.overall_hits::total             1261897                       # number of overall hits
system.icache.demand_misses::.cpu.inst           6751                       # number of demand (read+write) misses
system.icache.demand_misses::total               6751                       # number of demand (read+write) misses
system.icache.overall_misses::.cpu.inst          6751                       # number of overall misses
system.icache.overall_misses::total              6751                       # number of overall misses
system.icache.demand_miss_latency::.cpu.inst    368091000                       # number of demand (read+write) miss cycles
system.icache.demand_miss_latency::total    368091000                       # number of demand (read+write) miss cycles
system.icache.overall_miss_latency::.cpu.inst    368091000                       # number of overall miss cycles
system.icache.overall_miss_latency::total    368091000                       # number of overall miss cycles
system.icache.demand_accesses::.cpu.inst      1268648                       # number of demand (read+write) accesses
system.icache.demand_accesses::total          1268648                       # number of demand (read+write) accesses
system.icache.overall_accesses::.cpu.inst      1268648                       # number of overall (read+write) accesses
system.icache.overall_accesses::total         1268648                       # number of overall (read+write) accesses
system.icache.demand_miss_rate::.cpu.inst     0.005321                       # miss rate for demand accesses
system.icache.demand_miss_rate::total        0.005321                       # miss rate for demand accesses
system.icache.overall_miss_rate::.cpu.inst     0.005321                       # miss rate for overall accesses
system.icache.overall_miss_rate::total       0.005321                       # miss rate for overall accesses
system.icache.demand_avg_miss_latency::.cpu.inst 54523.922382                       # average overall miss latency
system.icache.demand_avg_miss_latency::total 54523.922382                       # average overall miss latency
system.icache.overall_avg_miss_latency::.cpu.inst 54523.922382                       # average overall miss latency
system.icache.overall_avg_miss_latency::total 54523.922382                       # average overall miss latency
system.icache.blocked_cycles::no_mshrs              0                       # number of cycles access was blocked
system.icache.blocked_cycles::no_targets            0                       # number of cycles access was blocked
system.icache.blocked::no_mshrs                     0                       # number of cycles access was blocked
system.icache.blocked::no_targets                   0                       # number of cycles access was blocked
system.icache.avg_blocked_cycles::no_mshrs          nan                       # average number of cycles each access was blocked
system.icache.avg_blocked_cycles::no_targets          nan                       # average number of cycles each access was blocked
system.icache.demand_mshr_misses::.cpu.inst         6751                       # number of demand (read+write) MSHR misses
system.icache.demand_mshr_misses::total          6751                       # number of demand (read+write) MSHR misses
system.icache.overall_mshr_misses::.cpu.inst         6751                       # number of overall MSHR misses
system.icache.overall_mshr_misses::total         6751                       # number of overall MSHR misses
system.icache.demand_mshr_miss_latency::.cpu.inst    354589000                       # number of demand (read+write) MSHR miss cycles
system.icache.demand_mshr_miss_latency::total    354589000                       # number of demand (read+write) MSHR miss cycles
system.icache.overall_mshr_miss_latency::.cpu.inst    354589000                       # number of overall MSHR miss cycles
system.icache.overall_mshr_miss_latency::total    354589000                       # number of overall MSHR miss cycles
system.icache.demand_mshr_miss_rate::.cpu.inst     0.005321                       # mshr miss rate for demand accesses
system.icache.demand_mshr_miss_rate::total     0.005321                       # mshr miss rate for demand accesses
system.icache.overall_mshr_miss_rate::.cpu.inst     0.005321                       # mshr miss rate for overall accesses
system.icache.overall_mshr_miss_rate::total     0.005321                       # mshr miss rate for overall accesses
system.icache.demand_avg_mshr_miss_latency::.cpu.inst 52523.922382                       # average overall mshr miss latency
system.icache.demand_avg_mshr_miss_latency::total 52523.922382                       # average overall mshr miss latency
system.icache.overall_avg_mshr_miss_latency::.cpu.inst 52523.922382                       # average overall mshr miss latency
system.icache.overall_avg_mshr_miss_latency::total 52523.922382                       # average overall mshr miss latency
system.icache.replacements                       6495                       # number of replacements
system.icache.ReadReq_hits::.cpu.inst         1261897                       # number of ReadReq hits
system.icache.ReadReq_hits::total             1261897                       # number of ReadReq hits
system.icache.ReadReq_misses::.cpu.inst          6751                       # number of ReadReq misses
system.icache.ReadReq_misses::total              6751                       # number of ReadReq misses
system.icache.ReadReq_miss_latency::.cpu.inst    368091000                       # number of ReadReq miss cycles
system.icache.ReadReq_miss_latency::total    368091000                       # number of ReadReq miss cycles
system.icache.ReadReq_accesses::.cpu.inst      1268648                       # number of ReadReq accesses(hits+misses)
system.icache.ReadReq_accesses::total         1268648                       # number of ReadReq accesses(hits+misses)
system.icache.ReadReq_miss_rate::.cpu.inst     0.005321                       # miss rate for ReadReq accesses
system.icache.ReadReq_miss_rate::total       0.005321                       # miss rate for ReadReq accesses
system.icache.ReadReq_avg_miss_latency::.cpu.inst 54523.922382                       # average ReadReq miss latency
system.icache.ReadReq_avg_miss_latency::total 54523.922382                       # average ReadReq miss latency
system.icache.ReadReq_mshr_misses::.cpu.inst         6751                       # number of ReadReq MSHR misses
system.icache.ReadReq_mshr_misses::total         6751                       # number of ReadReq MSHR misses
system.icache.ReadReq_mshr_miss_latency::.cpu.inst    354589000                       # number of ReadReq MSHR miss cycles
system.icache.ReadReq_mshr_miss_latency::total    354589000                       # number of ReadReq MSHR miss cycles
system.icache.ReadReq_mshr_miss_rate::.cpu.inst     0.005321                       # mshr miss rate for ReadReq accesses
system.icache.ReadReq_mshr_miss_rate::total     0.005321                       # mshr miss rate for ReadReq accesses
system.icache.ReadReq_avg_mshr_miss_latency::.cpu.inst 52523.922382                       # average ReadReq mshr miss latency
system.icache.ReadReq_avg_mshr_miss_latency::total 52523.922382                       # average ReadReq mshr miss latency
system.icache.power_state.pwrStateResidencyTicks::UNDEFINED   3713913000                       # Cumulative time (in ticks) in various power states
system.icache.tags.tagsinuse               251.929604                       # Cycle average of tags in use
system.icache.tags.total_refs                  992795                       # Total number of references to valid blocks.
system.icache.tags.sampled_refs                  6495                       # Sample count of references to valid blocks.
system.icache.tags.avg_refs                152.855273                       # Average number of references to valid blocks.
system.icache.tags.warmup_cycle                 80000                       # Cycle when the warmup percentage was hit.
system.icache.tags.occ_blocks::.cpu.inst   251.929604                       # Average occupied blocks per requestor
system.icache.tags.occ_percent::.cpu.inst     0.984100                       # Average percentage of cache occupancy
system.icache.tags.occ_percent::total        0.984100                       # Average percentage of cache occupancy
system.icache.tags.occ_task_id_blocks::1024          256                       # Occupied blocks per task id
system.icache.tags.age_task_id_blocks_1024::0            8                       # Occupied blocks per task id
system.icache.tags.age_task_id_blocks_1024::1           53                       # Occupied blocks per task id
system.icache.tags.age_task_id_blocks_1024::2           28                       # Occupied blocks per task id
system.icache.tags.age_task_id_blocks_1024::3          167                       # Occupied blocks per task id
system.icache.tags.occ_task_id_percent::1024            1                       # Percentage of cache occupancy per task id
system.icache.tags.tag_accesses               1275399                       # Number of tag accesses
system.icache.tags.data_accesses              1275399                       # Number of data accesses
system.icache.tags.power_state.pwrStateResidencyTicks::UNDEFINED   3713913000                       # Cumulative time (in ticks) in various power states
system.membus.trans_dist::ReadReq                7334                       # Transaction distribution
system.membus.trans_dist::ReadResp               7334                       # Transaction distribution
system.membus.trans_dist::WritebackDirty         1660                       # Transaction distribution
system.membus.pkt_count_system.dynamic_cache.mem_side::system.mem_ctrl.port        16328                       # Packet count per connected master and slave (bytes)
system.membus.pkt_count_system.dynamic_cache.mem_side::total        16328                       # Packet count per connected master and slave (bytes)
system.membus.pkt_count::total                  16328                       # Packet count per connected master and slave (bytes)
system.membus.pkt_size_system.dynamic_cache.mem_side::system.mem_ctrl.port       575616                       # Cumulative packet size per connected master and slave (bytes)
system.membus.pkt_size_system.dynamic_cache.mem_side::total       575616                       # Cumulative packet size per connected master and slave (bytes)
system.membus.pkt_size::total                  575616                       # Cumulative packet size per connected master and slave (bytes)
system.membus.reqLayer2.occupancy            15634000                       # Layer occupancy (ticks)
system.membus.reqLayer2.utilization               0.4                       # Layer utilization (%)
system.membus.respLayer0.occupancy           38937500                       # Layer occupancy (ticks)
system.membus.respLayer0.utilization              1.0                       # Layer utilization (%)
system.membus.power_state.pwrStateResidencyTicks::UNDEFINED   3713913000                       # Cumulative time (in ticks) in various power states
system.mem_ctrl.bytes_read::.cpu.inst          295808                       # Number of bytes read from this memory
system.mem_ctrl.bytes_read::.cpu.data          173568                       # Number of bytes read from this memory
system.mem_ctrl.bytes_read::total              469376                       # Number of bytes read from this memory
system.mem_ctrl.bytes_inst_read::.cpu.inst       295808                       # Number of instructions bytes read from this memory
system.mem_ctrl.bytes_inst_read::total         295808                       # Number of instructions bytes read from this memory
system.mem_ctrl.bytes_written::.writebacks       106240                       # Number of bytes written to this memory
system.mem_ctrl.bytes_written::total           106240                       # Number of bytes written to this memory
system.mem_ctrl.num_reads::.cpu.inst             4622                       # Number of read requests responded to by this memory
system.mem_ctrl.num_reads::.cpu.data             2712                       # Number of read requests responded to by this memory
system.mem_ctrl.num_reads::total                 7334                       # Number of read requests responded to by this memory
system.mem_ctrl.num_writes::.writebacks          1660                       # Number of write requests responded to by this memory
system.mem_ctrl.num_writes::total                1660                       # Number of write requests responded to by this memory
system.mem_ctrl.bw_read::.cpu.inst           79648608                       # Total read bandwidth from this memory (bytes/s)
system.mem_ctrl.bw_read::.cpu.data           46734536                       # Total read bandwidth from this memory (bytes/s)
system.mem_ctrl.bw_read::total              126383144                       # Total read bandwidth from this memory (bytes/s)
system.mem_ctrl.bw_inst_read::.cpu.inst      79648608                       # Instruction read bandwidth from this memory (bytes/s)
system.mem_ctrl.bw_inst_read::total          79648608                       # Instruction read bandwidth from this memory (bytes/s)
system.mem_ctrl.bw_write::.writebacks        28605947                       # Write bandwidth from this memory (bytes/s)
system.mem_ctrl.bw_write::total              28605947                       # Write bandwidth from this memory (bytes/s)
system.mem_ctrl.bw_total::.writebacks        28605947                       # Total bandwidth to/from this memory (bytes/s)
system.mem_ctrl.bw_total::.cpu.inst          79648608                       # Total bandwidth to/from this memory (bytes/s)
system.mem_ctrl.bw_total::.cpu.data          46734536                       # Total bandwidth to/from this memory (bytes/s)
system.mem_ctrl.bw_total::total             154989091                       # Total bandwidth to/from this memory (bytes/s)
system.mem_ctrl.avgPriority_.writebacks::samples       819.00                       # Average QoS priority value for accepted requests
system.mem_ctrl.avgPriority_.cpu.inst::samples      4622.00                       # Average QoS priority value for accepted requests
system.mem_ctrl.avgPriority_.cpu.data::samples      2339.00                       # Average QoS priority value for accepted requests
system.mem_ctrl.priorityMinLatency       0.000000018750                       # per QoS priority minimum request to response latency (s)
system.mem_ctrl.priorityMaxLatency       0.002781180500                       # per QoS priority maximum request to response latency (s)
system.mem_ctrl.numReadWriteTurnArounds            47                       # Number of turnarounds from READ to WRITE
system.mem_ctrl.numWriteReadTurnArounds            47                       # Number of turnarounds from WRITE to READ
system.mem_ctrl.numStayReadState                16503                       # Number of times bus staying in READ state
system.mem_ctrl.numStayWriteState                 752                       # Number of times bus staying in WRITE state
system.mem_ctrl.readReqs                         7334                       # Number of read requests accepted
system.mem_ctrl.writeReqs                        1660                       # Number of write requests accepted
system.mem_ctrl.readBursts                       7334                       # Number of DRAM read bursts, including those serviced by the write queue
system.mem_ctrl.writeBursts                      1660                       # Number of DRAM write bursts, including those merged in the write queue
system.mem_ctrl.servicedByWrQ                     373                       # Number of DRAM read bursts serviced by the write queue
system.mem_ctrl.mergedWrBursts                    841                       # Number of DRAM write bursts merged with an existing one
system.mem_ctrl.neitherReadNorWriteReqs             0                       # Number of requests that are neither read nor write
system.mem_ctrl.perBankRdBursts::0                323                       # Per bank write bursts
system.mem_ctrl.perBankRdBursts::1                346                       # Per bank write bursts
system.mem_ctrl.perBankRdBursts::2                620                       # Per bank write bursts
system.mem_ctrl.perBankRdBursts::3                303                       # Per bank write bursts
system.mem_ctrl.perBankRdBursts::4                389                       # Per bank write bursts
system.mem_ctrl.perBankRdBursts::5                365                       # Per bank write bursts
system.mem_ctrl.perBankRdBursts::6               1452                       # Per bank write bursts
system.mem_ctrl.perBankRdBursts::7                222                       # Per bank write bursts
system.mem_ctrl.perBankRdBursts::8                307                       # Per bank write bursts
system.mem_ctrl.perBankRdBursts::9                247                       # Per bank write bursts
system.mem_ctrl.perBankRdBursts::10              1171                       # Per bank write bursts
system.mem_ctrl.perBankRdBursts::11               216                       # Per bank write bursts
system.mem_ctrl.perBankRdBursts::12               207                       # Per bank write bursts
system.mem_ctrl.perBankRdBursts::13               297                       # Per bank write bursts
system.mem_ctrl.perBankRdBursts::14               310                       # Per bank write bursts
system.mem_ctrl.perBankRdBursts::15               186                       # Per bank write bursts
system.mem_ctrl.perBankWrBursts::0                 27                       # Per bank write bursts
system.mem_ctrl.perBankWrBursts::1                 10                       # Per bank write bursts
system.mem_ctrl.perBankWrBursts::2                  0                       # Per bank write bursts
system.mem_ctrl.perBankWrBursts::3                  0                       # Per bank write bursts
system.mem_ctrl.perBankWrBursts::4                 42                       # Per bank write bursts
system.mem_ctrl.perBankWrBursts::5                 70                       # Per bank write bursts
system.mem_ctrl.perBankWrBursts::6                 18                       # Per bank write bursts
system.mem_ctrl.perBankWrBursts::7                 45                       # Per bank write bursts
system.mem_ctrl.perBankWrBursts::8                 12                       # Per bank write bursts
system.mem_ctrl.perBankWrBursts::9                 70                       # Per bank write bursts
system.mem_ctrl.perBankWrBursts::10               120                       # Per bank write bursts
system.mem_ctrl.perBankWrBursts::11               102                       # Per bank write bursts
system.mem_ctrl.perBankWrBursts::12                66                       # Per bank write bursts
system.mem_ctrl.perBankWrBursts::13               122                       # Per bank write bursts
system.mem_ctrl.perBankWrBursts::14                88                       # Per bank write bursts
system.mem_ctrl.perBankWrBursts::15                 7                       # Per bank write bursts
system.mem_ctrl.avgRdQLen                        1.00                       # Average read queue length when enqueuing
system.mem_ctrl.avgWrQLen                       24.97                       # Average write queue length when enqueuing
system.mem_ctrl.totQLat                      56609750                       # Total ticks spent queuing
system.mem_ctrl.totBusLat                    34805000                       # Total ticks spent in databus transfers
system.mem_ctrl.totMemAccLat                187128500                       # Total ticks spent from burst creation until serviced by the DRAM
system.mem_ctrl.avgQLat                       8132.42                       # Average queueing delay per DRAM burst
system.mem_ctrl.avgBusLat                     5000.00                       # Average bus latency per DRAM burst
system.mem_ctrl.avgMemAccLat                 26882.42                       # Average memory access latency per DRAM burst
system.mem_ctrl.numRdRetry                          0                       # Number of times read queue was full causing retry
system.mem_ctrl.numWrRetry                          0                       # Number of times write queue was full causing retry
system.mem_ctrl.readRowHits                      5105                       # Number of row buffer hits during reads
system.mem_ctrl.writeRowHits                      670                       # Number of row buffer hits during writes
system.mem_ctrl.readRowHitRate                  73.34                       # Row buffer hit rate for reads
system.mem_ctrl.writeRowHitRate                 81.81                       # Row buffer hit rate for writes
system.mem_ctrl.readPktSize::0                      0                       # Read request sizes (log2)
system.mem_ctrl.readPktSize::1                      0                       # Read request sizes (log2)
system.mem_ctrl.readPktSize::2                      0                       # Read request sizes (log2)
system.mem_ctrl.readPktSize::3                      0                       # Read request sizes (log2)
system.mem_ctrl.readPktSize::4                      0                       # Read request sizes (log2)
system.mem_ctrl.readPktSize::5                      0                       # Read request sizes (log2)
system.mem_ctrl.readPktSize::6                   7334                       # Read request sizes (log2)
system.mem_ctrl.writePktSize::0                     0                       # Write request sizes (log2)
system.mem_ctrl.writePktSize::1                     0                       # Write request sizes (log2)
system.mem_ctrl.writePktSize::2                     0                       # Write request sizes (log2)
system.mem_ctrl.writePktSize::3                     0                       # Write request sizes (log2)
system.mem_ctrl.writePktSize::4                     0                       # Write request sizes (log2)
system.mem_ctrl.writePktSize::5                     0                       # Write request sizes (log2)
system.mem_ctrl.writePktSize::6                  1660                       # Write request sizes (log2)
system.mem_ctrl.rdQLenPdf::0                     6961                       # What read queue length does an incoming req see
system.mem_ctrl.rdQLenPdf::1                        0                       # What read queue length does an incoming req see
system.mem_ctrl.rdQLenPdf::2                        0                       # What read queue length does an incoming req see
system.mem_ctrl.rdQLenPdf::3                        0                       # What read queue length does an incoming req see
system.mem_ctrl.rdQLenPdf::4                        0                       # What read queue length does an incoming req see
system.mem_ctrl.rdQLenPdf::5                        0                       # What read queue length does an incoming req see
system.mem_ctrl.rdQLenPdf::6                        0                       # What read queue length does an incoming req see
system.mem_ctrl.rdQLenPdf::7                        0                       # What read queue length does an incoming req see
system.mem_ctrl.rdQLenPdf::8                        0                       # What read queue length does an incoming req see
system.mem_ctrl.rdQLenPdf::9                        0                       # What read queue length does an incoming req see
system.mem_ctrl.rdQLenPdf::10                       0                       # What read queue length does an incoming req see
system.mem_ctrl.rdQLenPdf::11                       0                       # What read queue length does an incoming req see
system.mem_ctrl.rdQLenPdf::12                       0                       # What read queue length does an incoming req see
system.mem_ctrl.rdQLenPdf::13                       0                       # What read queue length does an incoming req see
system.mem_ctrl.rdQLenPdf::14                       0                       # What read queue length does an incoming req see
system.mem_ctrl.rdQLenPdf::15                       0                       # What read queue length does an incoming req see
system.mem_ctrl.rdQLenPdf::16                       0                       # What read queue length does an incoming req see
system.mem_ctrl.rdQLenPdf::17                       0                       # What read queue length does an incoming req see
system.mem_ctrl.rdQLenPdf::18                       0                       # What read queue length does an incoming req see
system.mem_ctrl.rdQLenPdf::19                       0                       # What read queue length does an incoming req see
system.mem_ctrl.rdQLenPdf::20                       0                       # What read queue length does an incoming req see
system.mem_ctrl.rdQLenPdf::21                       0                       # What read queue length does an incoming req see
system.mem_ctrl.rdQLenPdf::22                       0                       # What read queue length does an incoming req see
system.mem_ctrl.rdQLenPdf::23                       0                       # What read queue length does an incoming req see
system.mem_ctrl.rdQLenPdf::24                       0                       # What read queue length does an incoming req see
system.mem_ctrl.rdQLenPdf::25                       0                       # What read queue length does an incoming req see
system.mem_ctrl.rdQLenPdf::26                       0                       # What read queue length does an incoming req see
system.mem_ctrl.rdQLenPdf::27                       0                       # What read queue length does an incoming req see
system.mem_ctrl.rdQLenPdf::28                       0                       # What read queue length does an incoming req see
system.mem_ctrl.rdQLenPdf::29                       0                       # What read queue length does an incoming req see
system.mem_ctrl.rdQLenPdf::30                       0                       # What read queue length does an incoming req see
system.mem_ctrl.rdQLenPdf::31                       0                       # What read queue length does an incoming req see
system.mem_ctrl.wrQLenPdf::0                        1                       # What write queue length does an incoming req see
system.mem_ctrl.wrQLenPdf::1                        1                       # What write queue length does an incoming req see
system.mem_ctrl.wrQLenPdf::2                        1                       # What write queue length does an incoming req see
system.mem_ctrl.wrQLenPdf::3                        1                       # What write queue length does an incoming req see
system.mem_ctrl.wrQLenPdf::4                        1                       # What write queue length does an incoming req see
system.mem_ctrl.wrQLenPdf::5                        1                       # What write queue length does an incoming req see
system.mem_ctrl.wrQLenPdf::6                        1                       # What write queue length does an incoming req see
system.mem_ctrl.wrQLenPdf::7                        1                       # What write queue length does an incoming req see
system.mem_ctrl.wrQLenPdf::8                        1                       # What write queue length does an incoming req see
system.mem_ctrl.wrQLenPdf::9                        1                       # What write queue length does an incoming req see
system.mem_ctrl.wrQLenPdf::10                       1                       # What write queue length does an incoming req see
system.mem_ctrl.wrQLenPdf::11                       1                       # What write queue length does an incoming req see
system.mem_ctrl.wrQLenPdf::12                       1                       # What write queue length does an incoming req see
system.mem_ctrl.wrQLenPdf::13                       1                       # What write queue length does an incoming req see
system.mem_ctrl.wrQLenPdf::14                       1                       # What write queue length does an incoming req see
system.mem_ctrl.wrQLenPdf::15                      22                       # What write queue length does an incoming req see
system.mem_ctrl.wrQLenPdf::16                      27                       # What write queue length does an incoming req see
system.mem_ctrl.wrQLenPdf::17                      47                       # What write queue length does an incoming req see
system.mem_ctrl.wrQLenPdf::18                      48                       # What write queue length does an incoming req see
system.mem_ctrl.wrQLenPdf::19                      48                       # What write queue length does an incoming req see
system.mem_ctrl.wrQLenPdf::20                      47                       # What write queue length does an incoming req see
system.mem_ctrl.wrQLenPdf::21                      47                       # What write queue length does an incoming req see
system.mem_ctrl.wrQLenPdf::22                      47                       # What write queue length does an incoming req see
system.mem_ctrl.wrQLenPdf::23                      47                       # What write queue length does an incoming req see
system.mem_ctrl.wrQLenPdf::24                      47                       # What write queue length does an incoming req see
system.mem_ctrl.wrQLenPdf::25                      47                       # What write queue length does an incoming req see
system.mem_ctrl.wrQLenPdf::26                      47                       # What write queue length does an incoming req see
system.mem_ctrl.wrQLenPdf::27                      48                       # What write queue length does an incoming req see
system.mem_ctrl.wrQLenPdf::28                      47                       # What write queue length does an incoming req see
system.mem_ctrl.wrQLenPdf::29                      47                       # What write queue length does an incoming req see
system.mem_ctrl.wrQLenPdf::30                      47                       # What write queue length does an incoming req see
system.mem_ctrl.wrQLenPdf::31                      47                       # What write queue length does an incoming req see
system.mem_ctrl.wrQLenPdf::32                      47                       # What write queue length does an incoming req see
system.mem_ctrl.wrQLenPdf::33                       0                       # What write queue length does an incoming req see
system.mem_ctrl.wrQLenPdf::34                       0                       # What write queue length does an incoming req see
system.mem_ctrl.wrQLenPdf::35                       0                       # What write queue length does an incoming req see
system.mem_ctrl.wrQLenPdf::36                       0                       # What write queue length does an incoming req see
system.mem_ctrl.wrQLenPdf::37                       0                       # What write queue length does an incoming req see
system.mem_ctrl.wrQLenPdf::38                       0                       # What write queue length does an incoming req see
system.mem_ctrl.wrQLenPdf::39                       0                       # What write queue length does an incoming req see
system.mem_ctrl.wrQLenPdf::40                       0                       # What write queue length does an incoming req see
system.mem_ctrl.wrQLenPdf::41                       0                       # What write queue length does an incoming req see
system.mem_ctrl.wrQLenPdf::42                       0                       # What write queue length does an incoming req see
system.mem_ctrl.wrQLenPdf::43                       0                       # What write queue length does an incoming req see
system.mem_ctrl.wrQLenPdf::44                       0                       # What write queue length does an incoming req see
system.mem_ctrl.wrQLenPdf::45                       0                       # What write queue length does an incoming req see
system.mem_ctrl.wrQLenPdf::46                       0                       # What write queue length does an incoming req see
system.mem_ctrl.wrQLenPdf::47                       0                       # What write queue length does an incoming req see
system.mem_ctrl.wrQLenPdf::48                       0                       # What write queue length does an incoming req see
system.mem_ctrl.wrQLenPdf::49                       0                       # What write queue length does an incoming req see
system.mem_ctrl.wrQLenPdf::50                       0                       # What write queue length does an incoming req see
system.mem_ctrl.wrQLenPdf::51                       0                       # What write queue length does an incoming req see
system.mem_ctrl.wrQLenPdf::52                       0                       # What write queue length does an incoming req see
system.mem_ctrl.wrQLenPdf::53                       0                       # What write queue length does an incoming req see
system.mem_ctrl.wrQLenPdf::54                       0                       # What write queue length does an incoming req see
system.mem_ctrl.wrQLenPdf::55                       0                       # What write queue length does an incoming req see
system.mem_ctrl.wrQLenPdf::56                       0                       # What write queue length does an incoming req see
system.mem_ctrl.wrQLenPdf::57                       0                       # What write queue length does an incoming req see
system.mem_ctrl.wrQLenPdf::58                       0                       # What write queue length does an incoming req see
system.mem_ctrl.wrQLenPdf::59                       0                       # What write queue length does an incoming req see
system.mem_ctrl.wrQLenPdf::60                       0                       # What write queue length does an incoming req see
system.mem_ctrl.wrQLenPdf::61                       0                       # What write queue length does an incoming req see
system.mem_ctrl.wrQLenPdf::62                       0                       # What write queue length does an incoming req see
system.mem_ctrl.wrQLenPdf::63                       0                       # What write queue length does an incoming req see
system.mem_ctrl.bytesPerActivate::samples         1982                       # Bytes accessed per row activation
system.mem_ctrl.bytesPerActivate::mean     250.349142                       # Bytes accessed per row activation
system.mem_ctrl.bytesPerActivate::gmean    166.946545                       # Bytes accessed per row activation
system.mem_ctrl.bytesPerActivate::stdev    249.054903                       # Bytes accessed per row activation
system.mem_ctrl.bytesPerActivate::0-127           676     34.11%     34.11% # Bytes accessed per row activation
system.mem_ctrl.bytesPerActivate::128-255          600     30.27%     64.38% # Bytes accessed per row activation
system.mem_ctrl.bytesPerActivate::256-383          278     14.03%     78.41% # Bytes accessed per row activation
system.mem_ctrl.bytesPerActivate::384-511          119      6.00%     84.41% # Bytes accessed per row activation
system.mem_ctrl.bytesPerActivate::512-639           98      4.94%     89.35% # Bytes accessed per row activation
system.mem_ctrl.bytesPerActivate::640-767           75      3.78%     93.14% # Bytes accessed per row activation
system.mem_ctrl.bytesPerActivate::768-895           35      1.77%     94.90% # Bytes accessed per row activation
system.mem_ctrl.bytesPerActivate::896-1023           23      1.16%     96.06% # Bytes accessed per row activation
system.mem_ctrl.bytesPerActivate::1024-1151           78      3.94%    100.00% # Bytes accessed per row activation
system.mem_ctrl.bytesPerActivate::total          1982                       # Bytes accessed per row activation
system.mem_ctrl.rdPerTurnAround::samples           47                       # Reads before turning the bus around for writes
system.mem_ctrl.rdPerTurnAround::mean      145.978723                       # Reads before turning the bus around for writes
system.mem_ctrl.rdPerTurnAround::gmean      62.799303                       # Reads before turning the bus around for writes
system.mem_ctrl.rdPerTurnAround::stdev     280.028142                       # Reads before turning the bus around for writes
system.mem_ctrl.rdPerTurnAround::0-63              27     57.45%     57.45% # Reads before turning the bus around for writes
system.mem_ctrl.rdPerTurnAround::64-127            11     23.40%     80.85% # Reads before turning the bus around for writes
system.mem_ctrl.rdPerTurnAround::128-191            4      8.51%     89.36% # Reads before turning the bus around for writes
system.mem_ctrl.rdPerTurnAround::192-255            1      2.13%     91.49% # Reads before turning the bus around for writes
system.mem_ctrl.rdPerTurnAround::768-831            1      2.13%     93.62% # Reads before turning the bus around for writes
system.mem_ctrl.rdPerTurnAround::832-895            1      2.13%     95.74% # Reads before turning the bus around for writes
system.mem_ctrl.rdPerTurnAround::896-959            1      2.13%     97.87% # Reads before turning the bus around for writes
system.mem_ctrl.rdPerTurnAround::1408-1471            1      2.13%    100.00% # Reads before turning the bus around for writes
system.mem_ctrl.rdPerTurnAround::total             47                       # Reads before turning the bus around for writes
system.mem_ctrl.wrPerTurnAround::samples           47                       # Writes before turning the bus around for reads
system.mem_ctrl.wrPerTurnAround::mean              17                       # Writes before turning the bus around for reads
system.mem_ctrl.wrPerTurnAround::gmean      16.973692                       # Writes before turning the bus around for reads
system.mem_ctrl.wrPerTurnAround::stdev       0.955533                       # Writes before turning the bus around for reads
system.mem_ctrl.wrPerTurnAround::16                21     44.68%     44.68% # Writes before turning the bus around for reads
system.mem_ctrl.wrPerTurnAround::17                 5     10.64%     55.32% # Writes before turning the bus around for reads
system.mem_ctrl.wrPerTurnAround::18                21     44.68%    100.00% # Writes before turning the bus around for reads
system.mem_ctrl.wrPerTurnAround::total             47                       # Writes before turning the bus around for reads
system.mem_ctrl.bytesReadDRAM                  445504                       # Total number of bytes read from DRAM
system.mem_ctrl.bytesReadWrQ                    23872                       # Total number of bytes read from write queue
system.mem_ctrl.bytesWritten                    51136                       # Total number of bytes written to DRAM
system.mem_ctrl.bytesReadSys                   469376                       # Total read bytes from the system interface side
system.mem_ctrl.bytesWrittenSys                106240                       # Total written bytes from the system interface side
system.mem_ctrl.avgRdBW                        119.96                       # Average DRAM read bandwidth in MiByte/s
system.mem_ctrl.avgWrBW                         13.77                       # Average achieved write bandwidth in MiByte/s
system.mem_ctrl.avgRdBWSys                     126.38                       # Average system read bandwidth in MiByte/s
system.mem_ctrl.avgWrBWSys                      28.61                       # Average system write bandwidth in MiByte/s
system.mem_ctrl.peakBW                       12800.00                       # Theoretical peak bandwidth in MiByte/s
system.mem_ctrl.busUtil                          1.04                       # Data bus utilization in percentage
system.mem_ctrl.busUtilRead                      0.94                       # Data bus utilization in percentage for reads
system.mem_ctrl.busUtilWrite                     0.11                       # Data bus utilization in percentage for writes
system.mem_ctrl.totGap                     3713073000                       # Total gap between requests
system.mem_ctrl.avgGap                      412838.89                       # Average gap between requests
system.mem_ctrl.masterReadBytes::.cpu.inst       295808                       # Per-master bytes read from memory
system.mem_ctrl.masterReadBytes::.cpu.data       149696                       # Per-master bytes read from memory
system.mem_ctrl.masterWriteBytes::.writebacks        51136                       # Per-master bytes write to memory
system.mem_ctrl.masterReadRate::.cpu.inst 79648607.816068932414                       # Per-master bytes read from memory rate (Bytes/sec)
system.mem_ctrl.masterReadRate::.cpu.data 40306813.864514328539                       # Per-master bytes read from memory rate (Bytes/sec)
system.mem_ctrl.masterWriteRate::.writebacks 13768766.258121823892                       # Per-master bytes write to memory rate (Bytes/sec)
system.mem_ctrl.masterReadAccesses::.cpu.inst         4622                       # Per-master read serviced memory accesses
system.mem_ctrl.masterReadAccesses::.cpu.data         2712                       # Per-master read serviced memory accesses
system.mem_ctrl.masterWriteAccesses::.writebacks         1660                       # Per-master write serviced memory accesses
system.mem_ctrl.masterReadTotalLat::.cpu.inst    121925500                       # Per-master read total memory access latency
system.mem_ctrl.masterReadTotalLat::.cpu.data     65203000                       # Per-master read total memory access latency
system.mem_ctrl.masterWriteTotalLat::.writebacks  74753114750                       # Per-master write total memory access latency
system.mem_ctrl.masterReadAvgLat::.cpu.inst     26379.38                       # Per-master read average memory access latency
system.mem_ctrl.masterReadAvgLat::.cpu.data     24042.40                       # Per-master read average memory access latency
system.mem_ctrl.masterWriteAvgLat::.writebacks  45031996.84                       # Per-master write average memory access latency
system.mem_ctrl.pageHitRate                     74.23                       # Row buffer hit rate, read and write combined
system.mem_ctrl.rank1.actEnergy               5454960                       # Energy for activate commands per rank (pJ)
system.mem_ctrl.rank1.preEnergy               2895585                       # Energy for precharge commands per rank (pJ)
system.mem_ctrl.rank1.readEnergy             20998740                       # Energy for read commands per rank (pJ)
system.mem_ctrl.rank1.writeEnergy             3064140                       # Energy for write commands per rank (pJ)
system.mem_ctrl.rank1.refreshEnergy      292568640.000000                       # Energy for refresh commands per rank (pJ)
system.mem_ctrl.rank1.actBackEnergy         551770260                       # Energy for active background per rank (pJ)
system.mem_ctrl.rank1.preBackEnergy         961494240                       # Energy for precharge background per rank (pJ)
system.mem_ctrl.rank1.actPowerDownEnergy            0                       # Energy for active power-down per rank (pJ)
system.mem_ctrl.rank1.prePowerDownEnergy            0                       # Energy for precharge power-down per rank (pJ)
system.mem_ctrl.rank1.selfRefreshEnergy             0                       # Energy for self refresh per rank (pJ)
system.mem_ctrl.rank1.totalEnergy          1838246565                       # Total energy per rank (pJ)
system.mem_ctrl.rank1.averagePower         494.962204                       # Core power per rank (mW)
system.mem_ctrl.rank1.totalIdleTime                 0                       # Total Idle time Per DRAM Rank
system.mem_ctrl.rank1.memoryStateTime::IDLE   2494334500                       # Time in different power states
system.mem_ctrl.rank1.memoryStateTime::REF    123760000                       # Time in different power states
system.mem_ctrl.rank1.memoryStateTime::SREF            0                       # Time in different power states
system.mem_ctrl.rank1.memoryStateTime::PRE_PDN            0                       # Time in different power states
system.mem_ctrl.rank1.memoryStateTime::ACT   1095818500                       # Time in different power states
system.mem_ctrl.rank1.memoryStateTime::ACT_PDN            0                       # Time in different power states
system.mem_ctrl.rank0.actEnergy               8717940                       # Energy for activate commands per rank (pJ)
system.mem_ctrl.rank0.preEnergy               4626105                       # Energy for precharge commands per rank (pJ)
system.mem_ctrl.rank0.readEnergy             28702800                       # Energy for read commands per rank (pJ)
system.mem_ctrl.rank0.writeEnergy             1106640                       # Energy for write commands per rank (pJ)
system.mem_ctrl.rank0.refreshEnergy      292568640.000000                       # Energy for refresh commands per rank (pJ)
system.mem_ctrl.rank0.actBackEnergy        1056548580                       # Energy for active background per rank (pJ)
system.mem_ctrl.rank0.preBackEnergy         536417760                       # Energy for precharge background per rank (pJ)
system.mem_ctrl.rank0.actPowerDownEnergy            0                       # Energy for active power-down per rank (pJ)
system.mem_ctrl.rank0.prePowerDownEnergy            0                       # Energy for precharge power-down per rank (pJ)
system.mem_ctrl.rank0.selfRefreshEnergy             0                       # Energy for self refresh per rank (pJ)
system.mem_ctrl.rank0.totalEnergy          1928688465                       # Total energy per rank (pJ)
system.mem_ctrl.rank0.averagePower         519.314390                       # Core power per rank (mW)
system.mem_ctrl.rank0.totalIdleTime                 0                       # Total Idle time Per DRAM Rank
system.mem_ctrl.rank0.memoryStateTime::IDLE   1384895000                       # Time in different power states
system.mem_ctrl.rank0.memoryStateTime::REF    123760000                       # Time in different power states
system.mem_ctrl.rank0.memoryStateTime::SREF            0                       # Time in different power states
system.mem_ctrl.rank0.memoryStateTime::PRE_PDN            0                       # Time in different power states
system.mem_ctrl.rank0.memoryStateTime::ACT   2205258000                       # Time in different power states
system.mem_ctrl.rank0.memoryStateTime::ACT_PDN            0                       # Time in different power states
system.mem_ctrl.power_state.pwrStateResidencyTicks::UNDEFINED   3713913000                       # Cumulative time (in ticks) in various power states
system.cache_medium.blocked_cycles::no_mshrs            0                       # number of cycles access was blocked
system.cache_medium.blocked_cycles::no_targets            0                       # number of cycles access was blocked
system.cache_medium.blocked::no_mshrs               0                       # number of cycles access was blocked
system.cache_medium.blocked::no_targets             0                       # number of cycles access was blocked
system.cache_medium.avg_blocked_cycles::no_mshrs          nan                       # average number of cycles each access was blocked
system.cache_medium.avg_blocked_cycles::no_targets          nan                       # average number of cycles each access was blocked
system.cache_medium.replacements                    0                       # number of replacements
system.cache_medium.power_state.pwrStateResidencyTicks::UNDEFINED   3713913000                       # Cumulative time (in ticks) in various power states
system.cache_medium.tags.tagsinuse                  0                       # Cycle average of tags in use
system.cache_medium.tags.total_refs                 0                       # Total number of references to valid blocks.
system.cache_medium.tags.sampled_refs               0                       # Sample count of references to valid blocks.
system.cache_medium.tags.avg_refs                 nan                       # Average number of references to valid blocks.
system.cache_medium.tags.warmup_cycle               0                       # Cycle when the warmup percentage was hit.
system.cache_medium.tags.tag_accesses               0                       # Number of tag accesses
system.cache_medium.tags.data_accesses              0                       # Number of data accesses
system.cache_medium.tags.power_state.pwrStateResidencyTicks::UNDEFINED   3713913000                       # Cumulative time (in ticks) in various power states
system.clk_domain.clock                          1000                       # Clock period in ticks
system.clk_domain.voltage_domain.voltage            1                       # Voltage in Volts
system.dcache.demand_hits::.cpu.data           296860                       # number of demand (read+write) hits
system.dcache.demand_hits::total               296860                       # number of demand (read+write) hits
system.dcache.overall_hits::.cpu.data          298953                       # number of overall hits
system.dcache.overall_hits::total              298953                       # number of overall hits
system.dcache.demand_misses::.cpu.data           4253                       # number of demand (read+write) misses
system.dcache.demand_misses::total               4253                       # number of demand (read+write) misses
system.dcache.overall_misses::.cpu.data          4263                       # number of overall misses
system.dcache.overall_misses::total              4263                       # number of overall misses
system.dcache.demand_miss_latency::.cpu.data    209696000                       # number of demand (read+write) miss cycles
system.dcache.demand_miss_latency::total    209696000                       # number of demand (read+write) miss cycles
system.dcache.overall_miss_latency::.cpu.data    210288000                       # number of overall miss cycles
system.dcache.overall_miss_latency::total    210288000                       # number of overall miss cycles
system.dcache.demand_accesses::.cpu.data       301113                       # number of demand (read+write) accesses
system.dcache.demand_accesses::total           301113                       # number of demand (read+write) accesses
system.dcache.overall_accesses::.cpu.data       303216                       # number of overall (read+write) accesses
system.dcache.overall_accesses::total          303216                       # number of overall (read+write) accesses
system.dcache.demand_miss_rate::.cpu.data     0.014124                       # miss rate for demand accesses
system.dcache.demand_miss_rate::total        0.014124                       # miss rate for demand accesses
system.dcache.overall_miss_rate::.cpu.data     0.014059                       # miss rate for overall accesses
system.dcache.overall_miss_rate::total       0.014059                       # miss rate for overall accesses
system.dcache.demand_avg_miss_latency::.cpu.data 49305.431460                       # average overall miss latency
system.dcache.demand_avg_miss_latency::total 49305.431460                       # average overall miss latency
system.dcache.overall_avg_miss_latency::.cpu.data 49328.641802                       # average overall miss latency
system.dcache.overall_avg_miss_latency::total 49328.641802                       # average overall miss latency
system.dcache.blocked_cycles::no_mshrs              0                       # number of cycles access was blocked
system.dcache.blocked_cycles::no_targets            0                       # number of cycles access was blocked
system.dcache.blocked::no_mshrs                     0                       # number of cycles access was blocked
system.dcache.blocked::no_targets                   0                       # number of cycles access was blocked
system.dcache.avg_blocked_cycles::no_mshrs          nan                       # average number of cycles each access was blocked
system.dcache.avg_blocked_cycles::no_targets          nan                       # average number of cycles each access was blocked
system.dcache.writebacks::.writebacks            2026                       # number of writebacks
system.dcache.writebacks::total                  2026                       # number of writebacks
system.dcache.demand_mshr_misses::.cpu.data         4253                       # number of demand (read+write) MSHR misses
system.dcache.demand_mshr_misses::total          4253                       # number of demand (read+write) MSHR misses
system.dcache.overall_mshr_misses::.cpu.data         4263                       # number of overall MSHR misses
system.dcache.overall_mshr_misses::total         4263                       # number of overall MSHR misses
system.dcache.demand_mshr_miss_latency::.cpu.data    201192000                       # number of demand (read+write) MSHR miss cycles
system.dcache.demand_mshr_miss_latency::total    201192000                       # number of demand (read+write) MSHR miss cycles
system.dcache.overall_mshr_miss_latency::.cpu.data    201764000                       # number of overall MSHR miss cycles
system.dcache.overall_mshr_miss_latency::total    201764000                       # number of overall MSHR miss cycles
system.dcache.demand_mshr_miss_rate::.cpu.data     0.014124                       # mshr miss rate for demand accesses
system.dcache.demand_mshr_miss_rate::total     0.014124                       # mshr miss rate for demand accesses
system.dcache.overall_mshr_miss_rate::.cpu.data     0.014059                       # mshr miss rate for overall accesses
system.dcache.overall_mshr_miss_rate::total     0.014059                       # mshr miss rate for overall accesses
system.dcache.demand_avg_mshr_miss_latency::.cpu.data 47305.901716                       # average overall mshr miss latency
system.dcache.demand_avg_mshr_miss_latency::total 47305.901716                       # average overall mshr miss latency
system.dcache.overall_avg_mshr_miss_latency::.cpu.data 47329.110955                       # average overall mshr miss latency
system.dcache.overall_avg_mshr_miss_latency::total 47329.110955                       # average overall mshr miss latency
system.dcache.replacements                       4006                       # number of replacements
system.dcache.ReadReq_hits::.cpu.data          198583                       # number of ReadReq hits
system.dcache.ReadReq_hits::total              198583                       # number of ReadReq hits
system.dcache.ReadReq_misses::.cpu.data          2674                       # number of ReadReq misses
system.dcache.ReadReq_misses::total              2674                       # number of ReadReq misses
system.dcache.ReadReq_miss_latency::.cpu.data    131357000                       # number of ReadReq miss cycles
system.dcache.ReadReq_miss_latency::total    131357000                       # number of ReadReq miss cycles
system.dcache.ReadReq_accesses::.cpu.data       201257                       # number of ReadReq accesses(hits+misses)
system.dcache.ReadReq_accesses::total          201257                       # number of ReadReq accesses(hits+misses)
system.dcache.ReadReq_miss_rate::.cpu.data     0.013286                       # miss rate for ReadReq accesses
system.dcache.ReadReq_miss_rate::total       0.013286                       # miss rate for ReadReq accesses
system.dcache.ReadReq_avg_miss_latency::.cpu.data 49123.784592                       # average ReadReq miss latency
system.dcache.ReadReq_avg_miss_latency::total 49123.784592                       # average ReadReq miss latency
system.dcache.ReadReq_mshr_misses::.cpu.data         2674                       # number of ReadReq MSHR misses
system.dcache.ReadReq_mshr_misses::total         2674                       # number of ReadReq MSHR misses
system.dcache.ReadReq_mshr_miss_latency::.cpu.data    126011000                       # number of ReadReq MSHR miss cycles
system.dcache.ReadReq_mshr_miss_latency::total    126011000                       # number of ReadReq MSHR miss cycles
system.dcache.ReadReq_mshr_miss_rate::.cpu.data     0.013286                       # mshr miss rate for ReadReq accesses
system.dcache.ReadReq_mshr_miss_rate::total     0.013286                       # mshr miss rate for ReadReq accesses
system.dcache.ReadReq_avg_mshr_miss_latency::.cpu.data 47124.532536                       # average ReadReq mshr miss latency
system.dcache.ReadReq_avg_mshr_miss_latency::total 47124.532536                       # average ReadReq mshr miss latency
system.dcache.WriteReq_hits::.cpu.data          98277                       # number of WriteReq hits
system.dcache.WriteReq_hits::total              98277                       # number of WriteReq hits
system.dcache.WriteReq_misses::.cpu.data         1579                       # number of WriteReq misses
system.dcache.WriteReq_misses::total             1579                       # number of WriteReq misses
system.dcache.WriteReq_miss_latency::.cpu.data     78339000                       # number of WriteReq miss cycles
system.dcache.WriteReq_miss_latency::total     78339000                       # number of WriteReq miss cycles
system.dcache.WriteReq_accesses::.cpu.data        99856                       # number of WriteReq accesses(hits+misses)
system.dcache.WriteReq_accesses::total          99856                       # number of WriteReq accesses(hits+misses)
system.dcache.WriteReq_miss_rate::.cpu.data     0.015813                       # miss rate for WriteReq accesses
system.dcache.WriteReq_miss_rate::total      0.015813                       # miss rate for WriteReq accesses
system.dcache.WriteReq_avg_miss_latency::.cpu.data 49613.046232                       # average WriteReq miss latency
system.dcache.WriteReq_avg_miss_latency::total 49613.046232                       # average WriteReq miss latency
system.dcache.WriteReq_mshr_misses::.cpu.data         1579                       # number of WriteReq MSHR misses
system.dcache.WriteReq_mshr_misses::total         1579                       # number of WriteReq MSHR misses
system.dcache.WriteReq_mshr_miss_latency::.cpu.data     75181000                       # number of WriteReq MSHR miss cycles
system.dcache.WriteReq_mshr_miss_latency::total     75181000                       # number of WriteReq MSHR miss cycles
system.dcache.WriteReq_mshr_miss_rate::.cpu.data     0.015813                       # mshr miss rate for WriteReq accesses
system.dcache.WriteReq_mshr_miss_rate::total     0.015813                       # mshr miss rate for WriteReq accesses
system.dcache.WriteReq_avg_mshr_miss_latency::.cpu.data 47613.046232                       # average WriteReq mshr miss latency
system.dcache.WriteReq_avg_mshr_miss_latency::total 47613.046232                       # average WriteReq mshr miss latency
system.dcache.SoftPFReq_hits::.cpu.data          2093                       # number of SoftPFReq hits
system.dcache.SoftPFReq_hits::total              2093                       # number of SoftPFReq hits
system.dcache.SoftPFReq_misses::.cpu.data           10                       # number of SoftPFReq misses
system.dcache.SoftPFReq_misses::total              10                       # number of SoftPFReq misses
system.dcache.SoftPFReq_miss_latency::.cpu.data       592000                       # number of SoftPFReq miss cycles
system.dcache.SoftPFReq_miss_latency::total       592000                       # number of SoftPFReq miss cycles
system.dcache.SoftPFReq_accesses::.cpu.data         2103                       # number of SoftPFReq accesses(hits+misses)
system.dcache.SoftPFReq_accesses::total          2103                       # number of SoftPFReq accesses(hits+misses)
system.dcache.SoftPFReq_miss_rate::.cpu.data     0.004755                       # miss rate for SoftPFReq accesses
system.dcache.SoftPFReq_miss_rate::total     0.004755                       # miss rate for SoftPFReq accesses
system.dcache.SoftPFReq_avg_miss_latency::.cpu.data        59200                       # average SoftPFReq miss latency
system.dcache.SoftPFReq_avg_miss_latency::total        59200                       # average SoftPFReq miss latency
system.dcache.SoftPFReq_mshr_misses::.cpu.data           10                       # number of SoftPFReq MSHR misses
system.dcache.SoftPFReq_mshr_misses::total           10                       # number of SoftPFReq MSHR misses
system.dcache.SoftPFReq_mshr_miss_latency::.cpu.data       572000                       # number of SoftPFReq MSHR miss cycles
system.dcache.SoftPFReq_mshr_miss_latency::total       572000                       # number of SoftPFReq MSHR miss cycles
system.dcache.SoftPFReq_mshr_miss_rate::.cpu.data     0.004755                       # mshr miss rate for SoftPFReq accesses
system.dcache.SoftPFReq_mshr_miss_rate::total     0.004755                       # mshr miss rate for SoftPFReq accesses
system.dcache.SoftPFReq_avg_mshr_miss_latency::.cpu.data        57200                       # average SoftPFReq mshr miss latency
system.dcache.SoftPFReq_avg_mshr_miss_latency::total        57200                       # average SoftPFReq mshr miss latency
system.dcache.power_state.pwrStateResidencyTicks::UNDEFINED   3713913000                       # Cumulative time (in ticks) in various power states
system.dcache.tags.tagsinuse               249.735171                       # Cycle average of tags in use
system.dcache.tags.total_refs                  155397                       # Total number of references to valid blocks.
system.dcache.tags.sampled_refs                  4006                       # Sample count of references to valid blocks.
system.dcache.tags.avg_refs                 38.791063                       # Average number of references to valid blocks.
system.dcache.tags.warmup_cycle                167000                       # Cycle when the warmup percentage was hit.
system.dcache.tags.occ_blocks::.cpu.data   249.735171                       # Average occupied blocks per requestor
system.dcache.tags.occ_percent::.cpu.data     0.975528                       # Average percentage of cache occupancy
system.dcache.tags.occ_percent::total        0.975528                       # Average percentage of cache occupancy
system.dcache.tags.occ_task_id_blocks::1024          256                       # Occupied blocks per task id
system.dcache.tags.age_task_id_blocks_1024::0            4                       # Occupied blocks per task id
system.dcache.tags.age_task_id_blocks_1024::1            1                       # Occupied blocks per task id
system.dcache.tags.age_task_id_blocks_1024::3          251                       # Occupied blocks per task id
system.dcache.tags.occ_task_id_percent::1024            1                       # Percentage of cache occupancy per task id
system.dcache.tags.tag_accesses                307478                       # Number of tag accesses
system.dcache.tags.data_accesses               307478                       # Number of data accesses
system.dcache.tags.power_state.pwrStateResidencyTicks::UNDEFINED   3713913000                       # Cumulative time (in ticks) in various power states
system.cache_large.blocked_cycles::no_mshrs            0                       # number of cycles access was blocked
system.cache_large.blocked_cycles::no_targets            0                       # number of cycles access was blocked
system.cache_large.blocked::no_mshrs                0                       # number of cycles access was blocked
system.cache_large.blocked::no_targets              0                       # number of cycles access was blocked
system.cache_large.avg_blocked_cycles::no_mshrs          nan                       # average number of cycles each access was blocked
system.cache_large.avg_blocked_cycles::no_targets          nan                       # average number of cycles each access was blocked
system.cache_large.replacements                     0                       # number of replacements
system.cache_large.power_state.pwrStateResidencyTicks::UNDEFINED   3713913000                       # Cumulative time (in ticks) in various power states
system.cache_large.tags.tagsinuse                   0                       # Cycle average of tags in use
system.cache_large.tags.total_refs                  0                       # Total number of references to valid blocks.
system.cache_large.tags.sampled_refs                0                       # Sample count of references to valid blocks.
system.cache_large.tags.avg_refs                  nan                       # Average number of references to valid blocks.
system.cache_large.tags.warmup_cycle                0                       # Cycle when the warmup percentage was hit.
system.cache_large.tags.tag_accesses                0                       # Number of tag accesses
system.cache_large.tags.data_accesses               0                       # Number of data accesses
system.cache_large.tags.power_state.pwrStateResidencyTicks::UNDEFINED   3713913000                       # Cumulative time (in ticks) in various power states
system.l2cache.demand_hits::.cpu.inst            2129                       # number of demand (read+write) hits
[...]
system.dcache.tags.age_task_id_blocks_1024::4          198                       # Occupied blocks per task id
system.dcache.tags.occ_task_id_percent::1024            1                       # Percentage of cache occupancy per task id
system.dcache.tags.tag_accesses               2002219                       # Number of tag accesses
system.dcache.tags.data_accesses              2002219                       # Number of data accesses
system.dcache.tags.power_state.pwrStateResidencyTicks::UNDEFINED  24132154000                       # Cumulative time (in ticks) in various power states
system.cache_large.blocked_cycles::no_mshrs            0                       # number of cycles access was blocked
system.cache_large.blocked_cycles::no_targets            0                       # number of cycles access was blocked
system.cache_large.blocked::no_mshrs                0                       # number of cycles access was blocked
system.cache_large.blocked::no_targets              0                       # number of cycles access was blocked
system.cache_large.avg_blocked_cycles::no_mshrs          nan                       # average number of cycles each access was blocked
system.cache_large.avg_blocked_cycles::no_targets          nan                       # average number of cycles each access was blocked
system.cache_large.replacements                     0                       # number of replacements
system.cache_large.power_state.pwrStateResidencyTicks::UNDEFINED  24132154000                       # Cumulative time (in ticks) in various power states
system.cache_large.tags.tagsinuse                   0                       # Cycle average of tags in use
system.cache_large.tags.total_refs                  0                       # Total number of references to valid blocks.
system.cache_large.tags.sampled_refs                0                       # Sample count of references to valid blocks.
system.cache_large.tags.avg_refs                  nan                       # Average number of references to valid blocks.
system.cache_large.tags.warmup_cycle                0                       # Cycle when the warmup percentage was hit.
system.cache_large.tags.tag_accesses                0                       # Number of tag accesses
system.cache_large.tags.data_accesses               0                       # Number of data accesses
system.cache_large.tags.power_state.pwrStateResidencyTicks::UNDEFINED  24132154000                       # Cumulative time (in ticks) in various power states
system.l2cache.demand_hits::.cpu.inst           10580                       # number of demand (read+write) hits
system.l2cache.demand_hits::.cpu.data           19290                       # number of demand (read+write) hits
system.l2cache.demand_hits::total               29870                       # number of demand (read+write) hits
system.l2cache.overall_hits::.cpu.inst          10580                       # number of overall hits
system.l2cache.overall_hits::.cpu.data          19290                       # number of overall hits
system.l2cache.overall_hits::total              29870                       # number of overall hits
system.l2cache.demand_misses::.cpu.inst         23027                       # number of demand (read+write) misses
system.l2cache.demand_misses::.cpu.data         14862                       # number of demand (read+write) misses
system.l2cache.demand_misses::total             37889                       # number of demand (read+write) misses
system.l2cache.overall_misses::.cpu.inst        23027                       # number of overall misses
system.l2cache.overall_misses::.cpu.data        14862                       # number of overall misses
system.l2cache.overall_misses::total            37889                       # number of overall misses
system.l2cache.demand_miss_latency::.cpu.inst    973888000                       # number of demand (read+write) miss cycles
system.l2cache.demand_miss_latency::.cpu.data    533838000                       # number of demand (read+write) miss cycles
system.l2cache.demand_miss_latency::total   1507726000                       # number of demand (read+write) miss cycles
system.l2cache.overall_miss_latency::.cpu.inst    973888000                       # number of overall miss cycles
system.l2cache.overall_miss_latency::.cpu.data    533838000                       # number of overall miss cycles
system.l2cache.overall_miss_latency::total   1507726000                       # number of overall miss cycles
system.l2cache.demand_accesses::.cpu.inst        33607                       # number of demand (read+write) accesses
system.l2cache.demand_accesses::.cpu.data        34152                       # number of demand (read+write) accesses
system.l2cache.demand_accesses::total           67759                       # number of demand (read+write) accesses
system.l2cache.overall_accesses::.cpu.inst        33607                       # number of overall (read+write) accesses
system.l2cache.overall_accesses::.cpu.data        34152                       # number of overall (read+write) accesses
system.l2cache.overall_accesses::total          67759                       # number of overall (read+write) accesses
system.l2cache.demand_miss_rate::.cpu.inst     0.685185                       # miss rate for demand accesses
system.l2cache.demand_miss_rate::.cpu.data     0.435172                       # miss rate for demand accesses
system.l2cache.demand_miss_rate::total       0.559173                       # miss rate for demand accesses
system.l2cache.overall_miss_rate::.cpu.inst     0.685185                       # miss rate for overall accesses
system.l2cache.overall_miss_rate::.cpu.data     0.435172                       # miss rate for overall accesses
system.l2cache.overall_miss_rate::total      0.559173                       # miss rate for overall accesses
system.l2cache.demand_avg_miss_latency::.cpu.inst 42293.307856                       # average overall miss latency
system.l2cache.demand_avg_miss_latency::.cpu.data 35919.660880                       # average overall miss latency
system.l2cache.demand_avg_miss_latency::total 39793.238143                       # average overall miss latency
system.l2cache.overall_avg_miss_latency::.cpu.inst 42293.307856                       # average overall miss latency
system.l2cache.overall_avg_miss_latency::.cpu.data 35919.660880                       # average overall miss latency
system.l2cache.overall_avg_miss_latency::total 39793.238143                       # average overall miss latency
system.l2cache.blocked_cycles::no_mshrs             0                       # number of cycles access was blocked
system.l2cache.blocked_cycles::no_targets            0                       # number of cycles access was blocked
system.l2cache.blocked::no_mshrs                    0                       # number of cycles access was blocked
system.l2cache.blocked::no_targets                  0                       # number of cycles access was blocked
system.l2cache.avg_blocked_cycles::no_mshrs          nan                       # average number of cycles each access was blocked
system.l2cache.avg_blocked_cycles::no_targets          nan                       # average number of cycles each access was blocked
system.l2cache.writebacks::.writebacks          14041                       # number of writebacks
system.l2cache.writebacks::total                14041                       # number of writebacks
system.l2cache.demand_mshr_misses::.cpu.inst        23027                       # number of demand (read+write) MSHR misses
system.l2cache.demand_mshr_misses::.cpu.data        14862                       # number of demand (read+write) MSHR misses
system.l2cache.demand_mshr_misses::total        37889                       # number of demand (read+write) MSHR misses
system.l2cache.overall_mshr_misses::.cpu.inst        23027                       # number of overall MSHR misses
system.l2cache.overall_mshr_misses::.cpu.data        14862                       # number of overall MSHR misses
system.l2cache.overall_mshr_misses::total        37889                       # number of overall MSHR misses
system.l2cache.demand_mshr_miss_latency::.cpu.inst    927834000                       # number of demand (read+write) MSHR miss cycles
system.l2cache.demand_mshr_miss_latency::.cpu.data    504114000                       # number of demand (read+write) MSHR miss cycles
system.l2cache.demand_mshr_miss_latency::total   1431948000                       # number of demand (read+write) MSHR miss cycles
system.l2cache.overall_mshr_miss_latency::.cpu.inst    927834000                       # number of overall MSHR miss cycles
system.l2cache.overall_mshr_miss_latency::.cpu.data    504114000                       # number of overall MSHR miss cycles
system.l2cache.overall_mshr_miss_latency::total   1431948000                       # number of overall MSHR miss cycles
system.l2cache.demand_mshr_miss_rate::.cpu.inst     0.685185                       # mshr miss rate for demand accesses
system.l2cache.demand_mshr_miss_rate::.cpu.data     0.435172                       # mshr miss rate for demand accesses
system.l2cache.demand_mshr_miss_rate::total     0.559173                       # mshr miss rate for demand accesses
system.l2cache.overall_mshr_miss_rate::.cpu.inst     0.685185                       # mshr miss rate for overall accesses
system.l2cache.overall_mshr_miss_rate::.cpu.data     0.435172                       # mshr miss rate for overall accesses
system.l2cache.overall_mshr_miss_rate::total     0.559173                       # mshr miss rate for overall accesses
system.l2cache.demand_avg_mshr_miss_latency::.cpu.inst 40293.307856                       # average overall mshr miss latency
system.l2cache.demand_avg_mshr_miss_latency::.cpu.data 33919.660880                       # average overall mshr miss latency
system.l2cache.demand_avg_mshr_miss_latency::total 37793.238143                       # average overall mshr miss latency
system.l2cache.overall_avg_mshr_miss_latency::.cpu.inst 40293.307856                       # average overall mshr miss latency
system.l2cache.overall_avg_mshr_miss_latency::.cpu.data 33919.660880                       # average overall mshr miss latency
system.l2cache.overall_avg_mshr_miss_latency::total 37793.238143                       # average overall mshr miss latency
system.l2cache.replacements                     50240                       # number of replacements
system.l2cache.ReadReq_hits::.cpu.inst          10580                       # number of ReadReq hits
system.l2cache.ReadReq_hits::.cpu.data          19290                       # number of ReadReq hits
system.l2cache.ReadReq_hits::total              29870                       # number of ReadReq hits
system.l2cache.ReadReq_misses::.cpu.inst        23027                       # number of ReadReq misses
system.l2cache.ReadReq_misses::.cpu.data        14862                       # number of ReadReq misses
system.l2cache.ReadReq_misses::total            37889                       # number of ReadReq misses
system.l2cache.ReadReq_miss_latency::.cpu.inst    973888000                       # number of ReadReq miss cycles
system.l2cache.ReadReq_miss_latency::.cpu.data    533838000                       # number of ReadReq miss cycles
system.l2cache.ReadReq_miss_latency::total   1507726000                       # number of ReadReq miss cycles
system.l2cache.ReadReq_accesses::.cpu.inst        33607                       # number of ReadReq accesses(hits+misses)
system.l2cache.ReadReq_accesses::.cpu.data        34152                       # number of ReadReq accesses(hits+misses)
system.l2cache.ReadReq_accesses::total          67759                       # number of ReadReq accesses(hits+misses)
system.l2cache.ReadReq_miss_rate::.cpu.inst     0.685185                       # miss rate for ReadReq accesses
system.l2cache.ReadReq_miss_rate::.cpu.data     0.435172                       # miss rate for ReadReq accesses
system.l2cache.ReadReq_miss_rate::total      0.559173                       # miss rate for ReadReq accesses
system.l2cache.ReadReq_avg_miss_latency::.cpu.inst 42293.307856                       # average ReadReq miss latency
system.l2cache.ReadReq_avg_miss_latency::.cpu.data 35919.660880                       # average ReadReq miss latency
system.l2cache.ReadReq_avg_miss_latency::total 39793.238143                       # average ReadReq miss latency
system.l2cache.ReadReq_mshr_misses::.cpu.inst        23027                       # number of ReadReq MSHR misses
system.l2cache.ReadReq_mshr_misses::.cpu.data        14862                       # number of ReadReq MSHR misses
system.l2cache.ReadReq_mshr_misses::total        37889                       # number of ReadReq MSHR misses
system.l2cache.ReadReq_mshr_miss_latency::.cpu.inst    927834000                       # number of ReadReq MSHR miss cycles
system.l2cache.ReadReq_mshr_miss_latency::.cpu.data    504114000                       # number of ReadReq MSHR miss cycles
system.l2cache.ReadReq_mshr_miss_latency::total   1431948000                       # number of ReadReq MSHR miss cycles
system.l2cache.ReadReq_mshr_miss_rate::.cpu.inst     0.685185                       # mshr miss rate for ReadReq accesses
system.l2cache.ReadReq_mshr_miss_rate::.cpu.data     0.435172                       # mshr miss rate for ReadReq accesses
system.l2cache.ReadReq_mshr_miss_rate::total     0.559173                       # mshr miss rate for ReadReq accesses
system.l2cache.ReadReq_avg_mshr_miss_latency::.cpu.inst 40293.307856                       # average ReadReq mshr miss latency
system.l2cache.ReadReq_avg_mshr_miss_latency::.cpu.data 33919.660880                       # average ReadReq mshr miss latency
system.l2cache.ReadReq_avg_mshr_miss_latency::total 37793.238143                       # average ReadReq mshr miss latency
system.l2cache.WritebackDirty_hits::.writebacks        14990                       # number of WritebackDirty hits
system.l2cache.WritebackDirty_hits::total        14990                       # number of WritebackDirty hits
system.l2cache.WritebackDirty_accesses::.writebacks        14990                       # number of WritebackDirty accesses(hits+misses)
system.l2cache.WritebackDirty_accesses::total        14990                       # number of WritebackDirty accesses(hits+misses)
system.l2cache.power_state.pwrStateResidencyTicks::UNDEFINED  24132154000                       # Cumulative time (in ticks) in various power states
system.l2cache.tags.tagsinuse              509.595766                       # Cycle average of tags in use
system.l2cache.tags.total_refs                  82749                       # Total number of references to valid blocks.
system.l2cache.tags.sampled_refs                50752                       # Sample count of references to valid blocks.
system.l2cache.tags.avg_refs                 1.630458                       # Average number of references to valid blocks.
system.l2cache.tags.warmup_cycle                76000                       # Cycle when the warmup percentage was hit.
system.l2cache.tags.occ_blocks::.writebacks    25.767363                       # Average occupied blocks per requestor
system.l2cache.tags.occ_blocks::.cpu.inst   463.638288                       # Average occupied blocks per requestor
system.l2cache.tags.occ_blocks::.cpu.data    20.190115                       # Average occupied blocks per requestor
system.l2cache.tags.occ_percent::.writebacks     0.050327                       # Average percentage of cache occupancy
system.l2cache.tags.occ_percent::.cpu.inst     0.905544                       # Average percentage of cache occupancy
system.l2cache.tags.occ_percent::.cpu.data     0.039434                       # Average percentage of cache occupancy
system.l2cache.tags.occ_percent::total       0.995304                       # Average percentage of cache occupancy
system.l2cache.tags.occ_task_id_blocks::1024          512                       # Occupied blocks per task id
system.l2cache.tags.age_task_id_blocks_1024::0            8                       # Occupied blocks per task id
system.l2cache.tags.age_task_id_blocks_1024::1           34                       # Occupied blocks per task id
system.l2cache.tags.age_task_id_blocks_1024::2            8                       # Occupied blocks per task id
system.l2cache.tags.age_task_id_blocks_1024::3          413                       # Occupied blocks per task id
system.l2cache.tags.age_task_id_blocks_1024::4           49                       # Occupied blocks per task id
system.l2cache.tags.occ_task_id_percent::1024            1                       # Percentage of cache occupancy per task id
system.l2cache.tags.tag_accesses               133501                       # Number of tag accesses
system.l2cache.tags.data_accesses              133501                       # Number of data accesses
system.l2cache.tags.power_state.pwrStateResidencyTicks::UNDEFINED  24132154000                       # Cumulative time (in ticks) in various power states
system.l2bar.trans_dist::ReadReq                67759                       # Transaction distribution
system.l2bar.trans_dist::ReadResp               67759                       # Transaction distribution
system.l2bar.trans_dist::WritebackDirty         14990                       # Transaction distribution
system.l2bar.pkt_count_system.dcache.mem_side::system.l2cache.cpu_side        83294                       # Packet count per connected master and slave (bytes)
system.l2bar.pkt_count_system.icache.mem_side::system.l2cache.cpu_side        67214                       # Packet count per connected master and slave (bytes)
system.l2bar.pkt_count::total                  150508                       # Packet count per connected master and slave (bytes)
system.l2bar.pkt_size_system.dcache.mem_side::system.l2cache.cpu_side      3145088                       # Cumulative packet size per connected master and slave (bytes)
system.l2bar.pkt_size_system.icache.mem_side::system.l2cache.cpu_side      2150848                       # Cumulative packet size per connected master and slave (bytes)
system.l2bar.pkt_size::total                  5295936                       # Cumulative packet size per connected master and slave (bytes)
system.l2bar.respLayer1.occupancy           168035000                       # Layer occupancy (ticks)
system.l2bar.respLayer1.utilization               0.7                       # Layer utilization (%)
system.l2bar.reqLayer0.occupancy            142709000                       # Layer occupancy (ticks)
system.l2bar.reqLayer0.utilization                0.6                       # Layer utilization (%)
system.l2bar.respLayer0.occupancy           170760000                       # Layer occupancy (ticks)
system.l2bar.respLayer0.utilization               0.7                       # Layer utilization (%)
system.l2bar.power_state.pwrStateResidencyTicks::UNDEFINED  24132154000                       # Cumulative time (in ticks) in various power states
system.cpu.dtb.walker.power_state.pwrStateResidencyTicks::UNDEFINED  24132154000                       # Cumulative time (in ticks) in various power states
system.cpu.interrupts.clk_domain.clock          16000                       # Clock period in ticks
system.cpu.itb.walker.power_state.pwrStateResidencyTicks::UNDEFINED  24132154000                       # Cumulative time (in ticks) in various power states
system.cpu.power_state.numTransitions               1                       # Number of power state transitions
system.cpu.power_state.pwrStateResidencyTicks::ON  24132154000                       # Cumulative time (in ticks) in various power states

---------- End Simulation Statistics   ----------
