
---------- Begin Simulation Statistics ----------
final_tick                               501349237000                       # Number of ticks from beginning of simulation (restored from checkpoints and never reset)
host_inst_rate                                 188462                       # Simulator instruction rate (inst/s)
host_mem_usage                                 679332                       # Number of bytes of host memory used
host_op_rate                                   221821                       # Simulator op (including micro ops) rate (op/s)
host_seconds                                    26.53                       # Real time elapsed on the host
host_tick_rate                            18896991370                       # Simulator tick rate (ticks/s)
sim_freq                                 1000000000000                       # Frequency of simulated ticks
sim_insts                                     5000000                       # Number of instructions simulated
sim_ops                                       5885046                       # Number of ops (including micro ops) simulated
sim_seconds                                  0.501349                       # Number of seconds simulated
sim_ticks                                501349237000                       # Number of ticks simulated
system.cachebus.snoop_filter.hit_multi_requests            0                       # Number of requests hitting in the snoop filter with multiple (>1) holders of the requested data.
system.cachebus.snoop_filter.hit_multi_snoops            0                       # Number of snoops hitting in the snoop filter with multiple (>1) holders of the requested data.
system.cachebus.snoop_filter.hit_single_requests            0                       # Number of requests hitting in the snoop filter with a single holder of the requested data.
system.cachebus.snoop_filter.hit_single_snoops            0                       # Number of snoops hitting in the snoop filter with a single holder of the requested data.
system.cachebus.snoop_filter.tot_requests            0                       # Total number of requests made to the snoop filter.
system.cachebus.snoop_filter.tot_snoops             0                       # Total number of snoops made to the snoop filter.
system.cpu.Branches                            221199                       # Number of branches fetched
system.cpu.committedInsts                     5000000                       # Number of instructions committed
system.cpu.committedOps                       5885046                       # Number of ops (including micro ops) committed
system.cpu.dtb.rdAccesses                        4335                       # TLB accesses on read requests
system.cpu.dtb.rdMisses                            16                       # TLB misses on read requests
system.cpu.dtb.wrAccesses                     4343112                       # TLB accesses on write requests
system.cpu.dtb.wrMisses                         16935                       # TLB misses on write requests
system.cpu.idle_fraction                            0                       # Percentage of idle cycles
system.cpu.itb.rdAccesses                           0                       # TLB accesses on read requests
system.cpu.itb.rdMisses                             0                       # TLB misses on read requests
system.cpu.itb.wrAccesses                     7838122                       # TLB accesses on write requests
system.cpu.itb.wrMisses                            47                       # TLB misses on write requests
system.cpu.not_idle_fraction                        1                       # Percentage of non-idle cycles
system.cpu.numCycles                        501349237                       # number of cpu cycles simulated
system.cpu.numWorkItemsCompleted                    0                       # number of work items this cpu completed
system.cpu.numWorkItemsStarted                      0                       # number of work items this cpu started
system.cpu.num_busy_cycles                  501349237                       # Number of busy cycles
system.cpu.num_cc_register_reads              1105476                       # number of times the CC registers were read
system.cpu.num_cc_register_writes              877466                       # number of times the CC registers were written
system.cpu.num_conditional_control_insts       220200                       # number of instructions that are conditional controls
system.cpu.num_fp_alu_accesses                4115986                       # Number of float alu accesses
system.cpu.num_fp_insts                       4115986                       # number of float instructions
system.cpu.num_fp_register_reads              4116497                       # number of times the floating registers were read
system.cpu.num_fp_register_writes                 609                       # number of times the floating registers were written
system.cpu.num_func_calls                         651                       # number of times a function call or return occured
system.cpu.num_idle_cycles                          0                       # Number of idle cycles
system.cpu.num_int_alu_accesses               5892792                       # Number of integer alu accesses
system.cpu.num_int_insts                      5892792                       # number of integer instructions
system.cpu.num_int_register_reads            15049111                       # number of times the integer registers were read
system.cpu.num_int_register_writes            1328668                       # number of times the integer registers were written
system.cpu.num_load_insts                        4320                       # Number of load instructions
system.cpu.num_mem_refs                       4347432                       # number of memory refs
system.cpu.num_store_insts                    4343112                       # Number of store instructions
system.cpu.num_vec_alu_accesses                     0                       # Number of vector alu accesses
system.cpu.num_vec_insts                            0                       # number of vector instructions
system.cpu.num_vec_register_reads                   0                       # number of times the vector registers were read
system.cpu.num_vec_register_writes                  0                       # number of times the vector registers were written
system.cpu.op_class::No_OpClass                   186      0.00%      0.00% # Class of executed instruction
system.cpu.op_class::IntAlu                   1545242     26.22%     26.22% # Class of executed instruction
system.cpu.op_class::IntMult                       29      0.00%     26.22% # Class of executed instruction
system.cpu.op_class::IntDiv                        70      0.00%     26.22% # Class of executed instruction
system.cpu.op_class::FloatAdd                      19      0.00%     26.22% # Class of executed instruction
system.cpu.op_class::FloatCmp                       0      0.00%     26.22% # Class of executed instruction
system.cpu.op_class::FloatCvt                       0      0.00%     26.22% # Class of executed instruction
system.cpu.op_class::FloatMult                      0      0.00%     26.22% # Class of executed instruction
system.cpu.op_class::FloatMultAcc                   0      0.00%     26.22% # Class of executed instruction
system.cpu.op_class::FloatDiv                       0      0.00%     26.22% # Class of executed instruction
system.cpu.op_class::FloatMisc                      0      0.00%     26.22% # Class of executed instruction
system.cpu.op_class::FloatSqrt                      0      0.00%     26.22% # Class of executed instruction
system.cpu.op_class::SimdAdd                        0      0.00%     26.22% # Class of executed instruction
system.cpu.op_class::SimdAddAcc                     0      0.00%     26.22% # Class of executed instruction
system.cpu.op_class::SimdAlu                      152      0.00%     26.23% # Class of executed instruction
system.cpu.op_class::SimdCmp                        0      0.00%     26.23% # Class of executed instruction
system.cpu.op_class::SimdCvt                      158      0.00%     26.23% # Class of executed instruction
system.cpu.op_class::SimdMisc                     221      0.00%     26.23% # Class of executed instruction
system.cpu.op_class::SimdMult                       0      0.00%     26.23% # Class of executed instruction
system.cpu.op_class::SimdMultAcc                    0      0.00%     26.23% # Class of executed instruction
system.cpu.op_class::SimdShift                      0      0.00%     26.23% # Class of executed instruction
system.cpu.op_class::SimdShiftAcc                   0      0.00%     26.23% # Class of executed instruction
system.cpu.op_class::SimdDiv                        0      0.00%     26.23% # Class of executed instruction
system.cpu.op_class::SimdSqrt                       0      0.00%     26.23% # Class of executed instruction
system.cpu.op_class::SimdFloatAdd                   0      0.00%     26.23% # Class of executed instruction
system.cpu.op_class::SimdFloatAlu                   0      0.00%     26.23% # Class of executed instruction
system.cpu.op_class::SimdFloatCmp                   0      0.00%     26.23% # Class of executed instruction
system.cpu.op_class::SimdFloatCvt                   2      0.00%     26.23% # Class of executed instruction
system.cpu.op_class::SimdFloatDiv                   0      0.00%     26.23% # Class of executed instruction
system.cpu.op_class::SimdFloatMisc                  0      0.00%     26.23% # Class of executed instruction
system.cpu.op_class::SimdFloatMult                  0      0.00%     26.23% # Class of executed instruction
system.cpu.op_class::SimdFloatMultAcc               0      0.00%     26.23% # Class of executed instruction
system.cpu.op_class::SimdFloatSqrt                  0      0.00%     26.23% # Class of executed instruction
system.cpu.op_class::SimdReduceAdd                  0      0.00%     26.23% # Class of executed instruction
system.cpu.op_class::SimdReduceAlu                  0      0.00%     26.23% # Class of executed instruction
system.cpu.op_class::SimdReduceCmp                  0      0.00%     26.23% # Class of executed instruction
system.cpu.op_class::SimdFloatReduceAdd             0      0.00%     26.23% # Class of executed instruction
system.cpu.op_class::SimdFloatReduceCmp             0      0.00%     26.23% # Class of executed instruction
system.cpu.op_class::SimdAes                        0      0.00%     26.23% # Class of executed instruction
system.cpu.op_class::SimdAesMix                     0      0.00%     26.23% # Class of executed instruction
system.cpu.op_class::SimdSha1Hash                   0      0.00%     26.23% # Class of executed instruction
system.cpu.op_class::SimdSha1Hash2                  0      0.00%     26.23% # Class of executed instruction
system.cpu.op_class::SimdSha256Hash                 0      0.00%     26.23% # Class of executed instruction
system.cpu.op_class::SimdSha256Hash2                0      0.00%     26.23% # Class of executed instruction
system.cpu.op_class::SimdShaSigma2                  0      0.00%     26.23% # Class of executed instruction
system.cpu.op_class::SimdShaSigma3                  0      0.00%     26.23% # Class of executed instruction
system.cpu.op_class::SimdPredAlu                    0      0.00%     26.23% # Class of executed instruction
system.cpu.op_class::MemRead                     4218      0.07%     26.31% # Class of executed instruction
system.cpu.op_class::MemWrite                  227846      3.87%     30.17% # Class of executed instruction
system.cpu.op_class::FloatMemRead                 102      0.00%     30.17% # Class of executed instruction
system.cpu.op_class::FloatMemWrite            4115266     69.83%    100.00% # Class of executed instruction
system.cpu.op_class::IprAccess                      0      0.00%    100.00% # Class of executed instruction
system.cpu.op_class::InstPrefetch                   0      0.00%    100.00% # Class of executed instruction
system.cpu.op_class::total                    5893511                       # Class of executed instruction
system.cpu.workload.numSyscalls                    19                       # Number of system calls
system.membus.snoop_filter.hit_multi_requests            0                       # Number of requests hitting in the snoop filter with multiple (>1) holders of the requested data.
system.membus.snoop_filter.hit_multi_snoops            0                       # Number of snoops hitting in the snoop filter with multiple (>1) holders of the requested data.
system.membus.snoop_filter.hit_single_requests            0                       # Number of requests hitting in the snoop filter with a single holder of the requested data.
system.membus.snoop_filter.hit_single_snoops            0                       # Number of snoops hitting in the snoop filter with a single holder of the requested data.
system.membus.snoop_filter.tot_requests             0                       # Total number of requests made to the snoop filter.
system.membus.snoop_filter.tot_snoops               0                       # Total number of snoops made to the snoop filter.
system.membus.trans_dist::ReadReq             7842457                       # Transaction distribution
system.membus.trans_dist::ReadResp            7842456                       # Transaction distribution
system.membus.trans_dist::WriteReq            4334647                       # Transaction distribution
system.membus.trans_dist::WriteResp           4334647                       # Transaction distribution
system.membus.pkt_count_system.cpu.icache_port::system.mem_ctrl.port     15676243                       # Packet count per connected master and slave (bytes)
system.membus.pkt_count_system.cpu.icache_port::total     15676243                       # Packet count per connected master and slave (bytes)
system.membus.pkt_count_system.memobj.mem_side::system.mem_ctrl.port      8677964                       # Packet count per connected master and slave (bytes)
system.membus.pkt_count_system.memobj.mem_side::total      8677964                       # Packet count per connected master and slave (bytes)
system.membus.pkt_count::total               24354207                       # Packet count per connected master and slave (bytes)
system.membus.pkt_size_system.cpu.icache_port::system.mem_ctrl.port     62704968                       # Cumulative packet size per connected master and slave (bytes)
system.membus.pkt_size_system.cpu.icache_port::total     62704968                       # Cumulative packet size per connected master and slave (bytes)
system.membus.pkt_size_system.memobj.mem_side::system.mem_ctrl.port     33835123                       # Cumulative packet size per connected master and slave (bytes)
system.membus.pkt_size_system.memobj.mem_side::total     33835123                       # Cumulative packet size per connected master and slave (bytes)
system.membus.pkt_size::total                96540091                       # Cumulative packet size per connected master and slave (bytes)
system.membus.snoops                                0                       # Total snoops (count)
system.membus.snoopTraffic                          0                       # Total snoop traffic (bytes)
system.membus.snoop_fanout::samples          12177104                       # Request fanout histogram
system.membus.snoop_fanout::mean                    0                       # Request fanout histogram
system.membus.snoop_fanout::stdev                   0                       # Request fanout histogram
system.membus.snoop_fanout::underflows              0      0.00%      0.00% # Request fanout histogram
system.membus.snoop_fanout::0                12177104    100.00%    100.00% # Request fanout histogram
system.membus.snoop_fanout::1                       0      0.00%    100.00% # Request fanout histogram
system.membus.snoop_fanout::overflows               0      0.00%    100.00% # Request fanout histogram
system.membus.snoop_fanout::min_value               0                       # Request fanout histogram
system.membus.snoop_fanout::max_value               0                       # Request fanout histogram
system.membus.snoop_fanout::total            12177104                       # Request fanout histogram
system.membus.reqLayer2.occupancy         16511751000                       # Layer occupancy (ticks)
system.membus.reqLayer2.utilization               3.3                       # Layer utilization (%)
system.membus.respLayer1.occupancy         4344431000                       # Layer occupancy (ticks)
system.membus.respLayer1.utilization              0.9                       # Layer utilization (%)
system.membus.respLayer0.occupancy        17752320500                       # Layer occupancy (ticks)
system.membus.respLayer0.utilization              3.5                       # Layer utilization (%)
system.membus.power_state.pwrStateResidencyTicks::UNDEFINED 501349237000                       # Cumulative time (in ticks) in various power states
system.mem_ctrl.bytes_read::.cpu.inst        62704968                       # Number of bytes read from this memory
system.mem_ctrl.bytes_read::.cpu.data           27431                       # Number of bytes read from this memory
system.mem_ctrl.bytes_read::total            62732399                       # Number of bytes read from this memory
system.mem_ctrl.bytes_inst_read::.cpu.inst     62704968                       # Number of instructions bytes read from this memory
system.mem_ctrl.bytes_inst_read::total       62704968                       # Number of instructions bytes read from this memory
system.mem_ctrl.bytes_written::.cpu.data     33807692                       # Number of bytes written to this memory
system.mem_ctrl.bytes_written::total         33807692                       # Number of bytes written to this memory
system.mem_ctrl.num_reads::.cpu.inst          7838121                       # Number of read requests responded to by this memory
system.mem_ctrl.num_reads::.cpu.data             4335                       # Number of read requests responded to by this memory
system.mem_ctrl.num_reads::total              7842456                       # Number of read requests responded to by this memory
system.mem_ctrl.num_writes::.cpu.data         4334647                       # Number of write requests responded to by this memory
system.mem_ctrl.num_writes::total             4334647                       # Number of write requests responded to by this memory
system.mem_ctrl.bw_read::.cpu.inst          125072431                       # Total read bandwidth from this memory (bytes/s)
system.mem_ctrl.bw_read::.cpu.data              54714                       # Total read bandwidth from this memory (bytes/s)
system.mem_ctrl.bw_read::total              125127146                       # Total read bandwidth from this memory (bytes/s)
system.mem_ctrl.bw_inst_read::.cpu.inst     125072431                       # Instruction read bandwidth from this memory (bytes/s)
system.mem_ctrl.bw_inst_read::total         125072431                       # Instruction read bandwidth from this memory (bytes/s)
system.mem_ctrl.bw_write::.cpu.data          67433417                       # Write bandwidth from this memory (bytes/s)
system.mem_ctrl.bw_write::total              67433417                       # Write bandwidth from this memory (bytes/s)
system.mem_ctrl.bw_total::.cpu.inst         125072431                       # Total bandwidth to/from this memory (bytes/s)
system.mem_ctrl.bw_total::.cpu.data          67488131                       # Total bandwidth to/from this memory (bytes/s)
system.mem_ctrl.bw_total::total             192560562                       # Total bandwidth to/from this memory (bytes/s)
system.mem_ctrl.avgPriority_.cpu.inst::samples   7838122.00                       # Average QoS priority value for accepted requests
system.mem_ctrl.avgPriority_.cpu.data::samples    550565.00                       # Average QoS priority value for accepted requests
system.mem_ctrl.priorityMinLatency       0.000000018750                       # per QoS priority minimum request to response latency (s)
system.mem_ctrl.priorityMaxLatency       0.002517780500                       # per QoS priority maximum request to response latency (s)
system.mem_ctrl.numReadWriteTurnArounds         34167                       # Number of turnarounds from READ to WRITE
system.mem_ctrl.numWriteReadTurnArounds         34167                       # Number of turnarounds from WRITE to READ
system.mem_ctrl.numStayReadState             20112314                       # Number of times bus staying in READ state
system.mem_ctrl.numStayWriteState              513284                       # Number of times bus staying in WRITE state
system.mem_ctrl.readReqs                      7842457                       # Number of read requests accepted
system.mem_ctrl.writeReqs                     4334647                       # Number of write requests accepted
system.mem_ctrl.readBursts                    7842457                       # Number of DRAM read bursts, including those serviced by the write queue
system.mem_ctrl.writeBursts                   4334647                       # Number of DRAM write bursts, including those merged in the write queue
system.mem_ctrl.servicedByWrQ                     668                       # Number of DRAM read bursts serviced by the write queue
system.mem_ctrl.mergedWrBursts                3787749                       # Number of DRAM write bursts merged with an existing one
system.mem_ctrl.neitherReadNorWriteReqs             0                       # Number of requests that are neither read nor write
system.mem_ctrl.perBankRdBursts::0            7815674                       # Per bank write bursts
system.mem_ctrl.perBankRdBursts::1                965                       # Per bank write bursts
system.mem_ctrl.perBankRdBursts::2                681                       # Per bank write bursts
system.mem_ctrl.perBankRdBursts::3               1127                       # Per bank write bursts
system.mem_ctrl.perBankRdBursts::4               1054                       # Per bank write bursts
system.mem_ctrl.perBankRdBursts::5                514                       # Per bank write bursts
system.mem_ctrl.perBankRdBursts::6                966                       # Per bank write bursts
system.mem_ctrl.perBankRdBursts::7                 24                       # Per bank write bursts
system.mem_ctrl.perBankRdBursts::8                194                       # Per bank write bursts
system.mem_ctrl.perBankRdBursts::9               1580                       # Per bank write bursts
system.mem_ctrl.perBankRdBursts::10               993                       # Per bank write bursts
system.mem_ctrl.perBankRdBursts::11              1826                       # Per bank write bursts
system.mem_ctrl.perBankRdBursts::12              3616                       # Per bank write bursts
system.mem_ctrl.perBankRdBursts::13             10000                       # Per bank write bursts
system.mem_ctrl.perBankRdBursts::14               947                       # Per bank write bursts
system.mem_ctrl.perBankRdBursts::15              1628                       # Per bank write bursts
system.mem_ctrl.perBankWrBursts::0              33920                       # Per bank write bursts
system.mem_ctrl.perBankWrBursts::1              38580                       # Per bank write bursts
system.mem_ctrl.perBankWrBursts::2              34477                       # Per bank write bursts
system.mem_ctrl.perBankWrBursts::3              33920                       # Per bank write bursts
system.mem_ctrl.perBankWrBursts::4              33858                       # Per bank write bursts
system.mem_ctrl.perBankWrBursts::5              33792                       # Per bank write bursts
system.mem_ctrl.perBankWrBursts::6              33792                       # Per bank write bursts
system.mem_ctrl.perBankWrBursts::7              33792                       # Per bank write bursts
system.mem_ctrl.perBankWrBursts::8              33795                       # Per bank write bursts
system.mem_ctrl.perBankWrBursts::9              33861                       # Per bank write bursts
system.mem_ctrl.perBankWrBursts::10             33820                       # Per bank write bursts
system.mem_ctrl.perBankWrBursts::11             33859                       # Per bank write bursts
system.mem_ctrl.perBankWrBursts::12             33813                       # Per bank write bursts
system.mem_ctrl.perBankWrBursts::13             33822                       # Per bank write bursts
system.mem_ctrl.perBankWrBursts::14             33857                       # Per bank write bursts
system.mem_ctrl.perBankWrBursts::15             33920                       # Per bank write bursts
system.mem_ctrl.avgRdQLen                        1.00                       # Average read queue length when enqueuing
system.mem_ctrl.avgWrQLen                       25.56                       # Average write queue length when enqueuing
system.mem_ctrl.totQLat                   25944708500                       # Total ticks spent queuing
system.mem_ctrl.totBusLat                 39208945000                       # Total ticks spent in databus transfers
system.mem_ctrl.totMemAccLat             172978252250                       # Total ticks spent from burst creation until serviced by the DRAM
system.mem_ctrl.avgQLat                       3308.52                       # Average queueing delay per DRAM burst
system.mem_ctrl.avgBusLat                     5000.00                       # Average bus latency per DRAM burst
system.mem_ctrl.avgMemAccLat                 22058.52                       # Average memory access latency per DRAM burst
system.mem_ctrl.numRdRetry                          0                       # Number of times read queue was full causing retry
system.mem_ctrl.numWrRetry                          0                       # Number of times write queue was full causing retry
system.mem_ctrl.readRowHits                   7324228                       # Number of row buffer hits during reads
system.mem_ctrl.writeRowHits                   508470                       # Number of row buffer hits during writes
system.mem_ctrl.readRowHitRate                  93.40                       # Row buffer hit rate for reads
system.mem_ctrl.writeRowHitRate                 92.97                       # Row buffer hit rate for writes
system.mem_ctrl.readPktSize::0                    569                       # Read request sizes (log2)
system.mem_ctrl.readPktSize::1                     34                       # Read request sizes (log2)
system.mem_ctrl.readPktSize::2                    761                       # Read request sizes (log2)
system.mem_ctrl.readPktSize::3                7841093                       # Read request sizes (log2)
system.mem_ctrl.readPktSize::4                      0                       # Read request sizes (log2)
system.mem_ctrl.readPktSize::5                      0                       # Read request sizes (log2)
system.mem_ctrl.readPktSize::6                      0                       # Read request sizes (log2)
system.mem_ctrl.writePktSize::0                   210                       # Write request sizes (log2)
system.mem_ctrl.writePktSize::1                    15                       # Write request sizes (log2)
system.mem_ctrl.writePktSize::2                216981                       # Write request sizes (log2)
system.mem_ctrl.writePktSize::3               4117441                       # Write request sizes (log2)
system.mem_ctrl.writePktSize::4                     0                       # Write request sizes (log2)
system.mem_ctrl.writePktSize::5                     0                       # Write request sizes (log2)
system.mem_ctrl.writePktSize::6                     0                       # Write request sizes (log2)
system.mem_ctrl.rdQLenPdf::0                  7841774                       # What read queue length does an incoming req see
system.mem_ctrl.rdQLenPdf::1                       15                       # What read queue length does an incoming req see
system.mem_ctrl.rdQLenPdf::2                        0                       # What read queue length does an incoming req see
system.mem_ctrl.rdQLenPdf::3                        0                       # What read queue length does an incoming req see
system.mem_ctrl.rdQLenPdf::4                        0                       # What read queue length does an incoming req see
system.mem_ctrl.rdQLenPdf::5                        0                       # What read queue length does an incoming req see
system.mem_ctrl.rdQLenPdf::6                        0                       # What read queue length does an incoming req see
system.mem_ctrl.rdQLenPdf::7                        0                       # What read queue length does an incoming req see
system.mem_ctrl.rdQLenPdf::8                        0                       # What read queue length does an incoming req see
system.mem_ctrl.rdQLenPdf::9                        0                       # What read queue length does an incoming req see
system.mem_ctrl.rdQLenPdf::10                       0                       # What read queue length does an incoming req see
system.mem_ctrl.rdQLenPdf::11                       0                       # What read queue length does an incoming req see
system.mem_ctrl.rdQLenPdf::12                       0                       # What read queue length does an incoming req see
system.mem_ctrl.rdQLenPdf::13                       0                       # What read queue length does an incoming req see
system.mem_ctrl.rdQLenPdf::14                       0                       # What read queue length does an incoming req see
system.mem_ctrl.rdQLenPdf::15                       0                       # What read queue length does an incoming req see
system.mem_ctrl.rdQLenPdf::16                       0                       # What read queue length does an incoming req see
system.mem_ctrl.rdQLenPdf::17                       0                       # What read queue length does an incoming req see
system.mem_ctrl.rdQLenPdf::18                       0                       # What read queue length does an incoming req see
system.mem_ctrl.rdQLenPdf::19                       0                       # What read queue length does an incoming req see
system.mem_ctrl.rdQLenPdf::20                       0                       # What read queue length does an incoming req see
system.mem_ctrl.rdQLenPdf::21                       0                       # What read queue length does an incoming req see
system.mem_ctrl.rdQLenPdf::22                       0                       # What read queue length does an incoming req see
system.mem_ctrl.rdQLenPdf::23                       0                       # What read queue length does an incoming req see
system.mem_ctrl.rdQLenPdf::24                       0                       # What read queue length does an incoming req see
system.mem_ctrl.rdQLenPdf::25                       0                       # What read queue length does an incoming req see
system.mem_ctrl.rdQLenPdf::26                       0                       # What read queue length does an incoming req see
system.mem_ctrl.rdQLenPdf::27                       0                       # What read queue length does an incoming req see
system.mem_ctrl.rdQLenPdf::28                       0                       # What read queue length does an incoming req see
system.mem_ctrl.rdQLenPdf::29                       0                       # What read queue length does an incoming req see
system.mem_ctrl.rdQLenPdf::30                       0                       # What read queue length does an incoming req see
system.mem_ctrl.rdQLenPdf::31                       0                       # What read queue length does an incoming req see
system.mem_ctrl.wrQLenPdf::0                        1                       # What write queue length does an incoming req see
system.mem_ctrl.wrQLenPdf::1                        1                       # What write queue length does an incoming req see
system.mem_ctrl.wrQLenPdf::2                        1                       # What write queue length does an incoming req see
system.mem_ctrl.wrQLenPdf::3                        1                       # What write queue length does an incoming req see
system.mem_ctrl.wrQLenPdf::4                        1                       # What write queue length does an incoming req see
system.mem_ctrl.wrQLenPdf::5                        1                       # What write queue length does an incoming req see
system.mem_ctrl.wrQLenPdf::6                        1                       # What write queue length does an incoming req see
system.mem_ctrl.wrQLenPdf::7                        1                       # What write queue length does an incoming req see
system.mem_ctrl.wrQLenPdf::8                        1                       # What write queue length does an incoming req see
system.mem_ctrl.wrQLenPdf::9                        1                       # What write queue length does an incoming req see
system.mem_ctrl.wrQLenPdf::10                       1                       # What write queue length does an incoming req see
system.mem_ctrl.wrQLenPdf::11                       1                       # What write queue length does an incoming req see
system.mem_ctrl.wrQLenPdf::12                       1                       # What write queue length does an incoming req see
system.mem_ctrl.wrQLenPdf::13                       1                       # What write queue length does an incoming req see
system.mem_ctrl.wrQLenPdf::14                       1                       # What write queue length does an incoming req see
system.mem_ctrl.wrQLenPdf::15                     104                       # What write queue length does an incoming req see
system.mem_ctrl.wrQLenPdf::16                     104                       # What write queue length does an incoming req see
system.mem_ctrl.wrQLenPdf::17                   34168                       # What write queue length does an incoming req see
system.mem_ctrl.wrQLenPdf::18                   34168                       # What write queue length does an incoming req see
system.mem_ctrl.wrQLenPdf::19                   34168                       # What write queue length does an incoming req see
system.mem_ctrl.wrQLenPdf::20                   34167                       # What write queue length does an incoming req see
system.mem_ctrl.wrQLenPdf::21                   34167                       # What write queue length does an incoming req see
system.mem_ctrl.wrQLenPdf::22                   34167                       # What write queue length does an incoming req see
system.mem_ctrl.wrQLenPdf::23                   34167                       # What write queue length does an incoming req see
system.mem_ctrl.wrQLenPdf::24                   34167                       # What write queue length does an incoming req see
system.mem_ctrl.wrQLenPdf::25                   34167                       # What write queue length does an incoming req see
system.mem_ctrl.wrQLenPdf::26                   34167                       # What write queue length does an incoming req see
system.mem_ctrl.wrQLenPdf::27                   34167                       # What write queue length does an incoming req see
system.mem_ctrl.wrQLenPdf::28                   34167                       # What write queue length does an incoming req see
system.mem_ctrl.wrQLenPdf::29                   34167                       # What write queue length does an incoming req see
system.mem_ctrl.wrQLenPdf::30                   34167                       # What write queue length does an incoming req see
system.mem_ctrl.wrQLenPdf::31                   34167                       # What write queue length does an incoming req see
system.mem_ctrl.wrQLenPdf::32                   34167                       # What write queue length does an incoming req see
system.mem_ctrl.wrQLenPdf::33                       0                       # What write queue length does an incoming req see
system.mem_ctrl.wrQLenPdf::34                       0                       # What write queue length does an incoming req see
system.mem_ctrl.wrQLenPdf::35                       0                       # What write queue length does an incoming req see
system.mem_ctrl.wrQLenPdf::36                       0                       # What write queue length does an incoming req see
system.mem_ctrl.wrQLenPdf::37                       0                       # What write queue length does an incoming req see
system.mem_ctrl.wrQLenPdf::38                       0                       # What write queue length does an incoming req see
system.mem_ctrl.wrQLenPdf::39                       0                       # What write queue length does an incoming req see
system.mem_ctrl.wrQLenPdf::40                       0                       # What write queue length does an incoming req see
system.mem_ctrl.wrQLenPdf::41                       0                       # What write queue length does an incoming req see
system.mem_ctrl.wrQLenPdf::42                       0                       # What write queue length does an incoming req see
system.mem_ctrl.wrQLenPdf::43                       0                       # What write queue length does an incoming req see
system.mem_ctrl.wrQLenPdf::44                       0                       # What write queue length does an incoming req see
system.mem_ctrl.wrQLenPdf::45                       0                       # What write queue length does an incoming req see
system.mem_ctrl.wrQLenPdf::46                       0                       # What write queue length does an incoming req see
system.mem_ctrl.wrQLenPdf::47                       0                       # What write queue length does an incoming req see
system.mem_ctrl.wrQLenPdf::48                       0                       # What write queue length does an incoming req see
system.mem_ctrl.wrQLenPdf::49                       0                       # What write queue length does an incoming req see
system.mem_ctrl.wrQLenPdf::50                       0                       # What write queue length does an incoming req see
system.mem_ctrl.wrQLenPdf::51                       0                       # What write queue length does an incoming req see
system.mem_ctrl.wrQLenPdf::52                       0                       # What write queue length does an incoming req see
system.mem_ctrl.wrQLenPdf::53                       0                       # What write queue length does an incoming req see
system.mem_ctrl.wrQLenPdf::54                       0                       # What write queue length does an incoming req see
system.mem_ctrl.wrQLenPdf::55                       0                       # What write queue length does an incoming req see
system.mem_ctrl.wrQLenPdf::56                       0                       # What write queue length does an incoming req see
system.mem_ctrl.wrQLenPdf::57                       0                       # What write queue length does an incoming req see
system.mem_ctrl.wrQLenPdf::58                       0                       # What write queue length does an incoming req see
system.mem_ctrl.wrQLenPdf::59                       0                       # What write queue length does an incoming req see
system.mem_ctrl.wrQLenPdf::60                       0                       # What write queue length does an incoming req see
system.mem_ctrl.wrQLenPdf::61                       0                       # What write queue length does an incoming req see
system.mem_ctrl.wrQLenPdf::62                       0                       # What write queue length does an incoming req see
system.mem_ctrl.wrQLenPdf::63                       0                       # What write queue length does an incoming req see
system.mem_ctrl.bytesPerActivate::samples       555968                       # Bytes accessed per row activation
system.mem_ctrl.bytesPerActivate::mean     965.657189                       # Bytes accessed per row activation
system.mem_ctrl.bytesPerActivate::gmean    943.426978                       # Bytes accessed per row activation
system.mem_ctrl.bytesPerActivate::stdev    156.747792                       # Bytes accessed per row activation
system.mem_ctrl.bytesPerActivate::0-127          1025      0.18%      0.18% # Bytes accessed per row activation
system.mem_ctrl.bytesPerActivate::128-255         2762      0.50%      0.68% # Bytes accessed per row activation
system.mem_ctrl.bytesPerActivate::256-383         2293      0.41%      1.09% # Bytes accessed per row activation
system.mem_ctrl.bytesPerActivate::384-511         1613      0.29%      1.38% # Bytes accessed per row activation
system.mem_ctrl.bytesPerActivate::512-639        22953      4.13%      5.51% # Bytes accessed per row activation
system.mem_ctrl.bytesPerActivate::640-767        39893      7.18%     12.69% # Bytes accessed per row activation
system.mem_ctrl.bytesPerActivate::768-895         3219      0.58%     13.27% # Bytes accessed per row activation
system.mem_ctrl.bytesPerActivate::896-1023         2261      0.41%     13.67% # Bytes accessed per row activation
system.mem_ctrl.bytesPerActivate::1024-1151       479949     86.33%    100.00% # Bytes accessed per row activation
system.mem_ctrl.bytesPerActivate::total        555968                       # Bytes accessed per row activation
system.mem_ctrl.rdPerTurnAround::samples        34167                       # Reads before turning the bus around for writes
system.mem_ctrl.rdPerTurnAround::mean      229.512366                       # Reads before turning the bus around for writes
system.mem_ctrl.rdPerTurnAround::gmean     228.692968                       # Reads before turning the bus around for writes
system.mem_ctrl.rdPerTurnAround::stdev     100.760326                       # Reads before turning the bus around for writes
system.mem_ctrl.rdPerTurnAround::0-1023         34163     99.99%     99.99% # Reads before turning the bus around for writes
system.mem_ctrl.rdPerTurnAround::1024-2047            3      0.01%    100.00% # Reads before turning the bus around for writes
system.mem_ctrl.rdPerTurnAround::18432-19455            1      0.00%    100.00% # Reads before turning the bus around for writes
system.mem_ctrl.rdPerTurnAround::total          34167                       # Reads before turning the bus around for writes
system.mem_ctrl.wrPerTurnAround::samples        34167                       # Writes before turning the bus around for reads
system.mem_ctrl.wrPerTurnAround::mean       16.006029                       # Writes before turning the bus around for reads
system.mem_ctrl.wrPerTurnAround::gmean      16.005682                       # Writes before turning the bus around for reads
system.mem_ctrl.wrPerTurnAround::stdev       0.109647                       # Writes before turning the bus around for reads
system.mem_ctrl.wrPerTurnAround::16             34064     99.70%     99.70% # Writes before turning the bus around for reads
system.mem_ctrl.wrPerTurnAround::18               103      0.30%    100.00% # Writes before turning the bus around for reads
system.mem_ctrl.wrPerTurnAround::total          34167                       # Writes before turning the bus around for reads
system.mem_ctrl.bytesReadDRAM               501874496                       # Total number of bytes read from DRAM
system.mem_ctrl.bytesReadWrQ                    42752                       # Total number of bytes read from write queue
system.mem_ctrl.bytesWritten                 35000192                       # Total number of bytes written to DRAM
system.mem_ctrl.bytesReadSys                 62732407                       # Total read bytes from the system interface side
system.mem_ctrl.bytesWrittenSys              33807692                       # Total written bytes from the system interface side
system.mem_ctrl.avgRdBW                       1001.05                       # Average DRAM read bandwidth in MiByte/s
system.mem_ctrl.avgWrBW                         69.81                       # Average achieved write bandwidth in MiByte/s
system.mem_ctrl.avgRdBWSys                     125.13                       # Average system read bandwidth in MiByte/s
system.mem_ctrl.avgWrBWSys                      67.43                       # Average system write bandwidth in MiByte/s
system.mem_ctrl.peakBW                       12800.00                       # Theoretical peak bandwidth in MiByte/s
system.mem_ctrl.busUtil                          8.37                       # Data bus utilization in percentage
system.mem_ctrl.busUtilRead                      7.82                       # Data bus utilization in percentage for reads
system.mem_ctrl.busUtilWrite                     0.55                       # Data bus utilization in percentage for writes
system.mem_ctrl.totGap                   501349160000                       # Total gap between requests
system.mem_ctrl.avgGap                       41171.46                       # Average gap between requests
system.mem_ctrl.masterReadBytes::.cpu.inst     62704976                       # Per-master bytes read from memory
system.mem_ctrl.masterReadBytes::.cpu.data        23561                       # Per-master bytes read from memory
system.mem_ctrl.masterWriteBytes::.cpu.data      3508549                       # Per-master bytes write to memory
system.mem_ctrl.masterReadRate::.cpu.inst 125072447.252971485257                       # Per-master bytes read from memory rate (Bytes/sec)
system.mem_ctrl.masterReadRate::.cpu.data 46995.184715918898                       # Per-master bytes read from memory rate (Bytes/sec)
system.mem_ctrl.masterWriteRate::.cpu.data 6998213.502816201188                       # Per-master bytes write to memory rate (Bytes/sec)
system.mem_ctrl.masterReadAccesses::.cpu.inst      7838122                       # Per-master read serviced memory accesses
system.mem_ctrl.masterReadAccesses::.cpu.data         4335                       # Per-master read serviced memory accesses
system.mem_ctrl.masterWriteAccesses::.cpu.data      4334647                       # Per-master write serviced memory accesses
system.mem_ctrl.masterReadTotalLat::.cpu.inst 172891501250                       # Per-master read total memory access latency
system.mem_ctrl.masterReadTotalLat::.cpu.data     86751000                       # Per-master read total memory access latency
system.mem_ctrl.masterWriteTotalLat::.cpu.data 12337213666750                       # Per-master write total memory access latency
system.mem_ctrl.masterReadAvgLat::.cpu.inst     22057.77                       # Per-master read average memory access latency
system.mem_ctrl.masterReadAvgLat::.cpu.data     20011.76                       # Per-master read average memory access latency
system.mem_ctrl.masterWriteAvgLat::.cpu.data   2846186.48                       # Per-master write average memory access latency
system.mem_ctrl.pageHitRate                     93.37                       # Row buffer hit rate, read and write combined
system.mem_ctrl.rank1.actEnergy             149461620                       # Energy for activate commands per rank (pJ)
system.mem_ctrl.rank1.preEnergy              79440735                       # Energy for precharge commands per rank (pJ)
system.mem_ctrl.rank1.readEnergy            148397760                       # Energy for read commands per rank (pJ)
system.mem_ctrl.rank1.writeEnergy          1413299340                       # Energy for write commands per rank (pJ)
system.mem_ctrl.rank1.refreshEnergy      39576054960.000008                       # Energy for refresh commands per rank (pJ)
system.mem_ctrl.rank1.actBackEnergy       13297601250                       # Energy for active background per rank (pJ)
system.mem_ctrl.rank1.preBackEnergy      181320127200                       # Energy for precharge background per rank (pJ)
system.mem_ctrl.rank1.actPowerDownEnergy            0                       # Energy for active power-down per rank (pJ)
system.mem_ctrl.rank1.prePowerDownEnergy            0                       # Energy for precharge power-down per rank (pJ)
system.mem_ctrl.rank1.selfRefreshEnergy             0                       # Energy for self refresh per rank (pJ)
system.mem_ctrl.rank1.totalEnergy        235984382865                       # Total energy per rank (pJ)
system.mem_ctrl.rank1.averagePower         470.698598                       # Core power per rank (mW)
system.mem_ctrl.rank1.totalIdleTime                 0                       # Total Idle time Per DRAM Rank
system.mem_ctrl.rank1.memoryStateTime::IDLE 471059047000                       # Time in different power states
system.mem_ctrl.rank1.memoryStateTime::REF  16741140000                       # Time in different power states
system.mem_ctrl.rank1.memoryStateTime::SREF            0                       # Time in different power states
system.mem_ctrl.rank1.memoryStateTime::PRE_PDN            0                       # Time in different power states
system.mem_ctrl.rank1.memoryStateTime::ACT  13549050000                       # Time in different power states
system.mem_ctrl.rank1.memoryStateTime::ACT_PDN            0                       # Time in different power states
system.mem_ctrl.rank0.actEnergy            3820157040                       # Energy for activate commands per rank (pJ)
system.mem_ctrl.rank0.preEnergy            2030457825                       # Energy for precharge commands per rank (pJ)
system.mem_ctrl.rank0.readEnergy          55841975700                       # Energy for read commands per rank (pJ)
system.mem_ctrl.rank0.writeEnergy          1441403820                       # Energy for write commands per rank (pJ)
system.mem_ctrl.rank0.refreshEnergy      39576054960.000008                       # Energy for refresh commands per rank (pJ)
system.mem_ctrl.rank0.actBackEnergy      216899540130                       # Energy for active background per rank (pJ)
system.mem_ctrl.rank0.preBackEnergy        9865862880                       # Energy for precharge background per rank (pJ)
system.mem_ctrl.rank0.actPowerDownEnergy            0                       # Energy for active power-down per rank (pJ)
system.mem_ctrl.rank0.prePowerDownEnergy            0                       # Energy for precharge power-down per rank (pJ)
system.mem_ctrl.rank0.selfRefreshEnergy             0                       # Energy for self refresh per rank (pJ)
system.mem_ctrl.rank0.totalEnergy        329475452355                       # Total energy per rank (pJ)
system.mem_ctrl.rank0.averagePower         657.177528                       # Core power per rank (mW)
system.mem_ctrl.rank0.totalIdleTime                 0                       # Total Idle time Per DRAM Rank
system.mem_ctrl.rank0.memoryStateTime::IDLE  17792480250                       # Time in different power states
system.mem_ctrl.rank0.memoryStateTime::REF  16741140000                       # Time in different power states
system.mem_ctrl.rank0.memoryStateTime::SREF            0                       # Time in different power states
system.mem_ctrl.rank0.memoryStateTime::PRE_PDN            0                       # Time in different power states
system.mem_ctrl.rank0.memoryStateTime::ACT 466815616750                       # Time in different power states
system.mem_ctrl.rank0.memoryStateTime::ACT_PDN            0                       # Time in different power states
system.mem_ctrl.power_state.pwrStateResidencyTicks::UNDEFINED 501349237000                       # Cumulative time (in ticks) in various power states
system.cache.blocked_cycles::no_mshrs               0                       # number of cycles access was blocked
system.cache.blocked_cycles::no_targets             0                       # number of cycles access was blocked
system.cache.blocked::no_mshrs                      0                       # number of cycles access was blocked
system.cache.blocked::no_targets                    0                       # number of cycles access was blocked
system.cache.avg_blocked_cycles::no_mshrs          nan                       # average number of cycles each access was blocked
system.cache.avg_blocked_cycles::no_targets          nan                       # average number of cycles each access was blocked
system.cache.replacements                           0                       # number of replacements
system.cache.power_state.pwrStateResidencyTicks::UNDEFINED 501349237000                       # Cumulative time (in ticks) in various power states
system.cache.tags.tagsinuse                         0                       # Cycle average of tags in use
system.cache.tags.total_refs                        0                       # Total number of references to valid blocks.
system.cache.tags.sampled_refs                      0                       # Sample count of references to valid blocks.
system.cache.tags.avg_refs                        nan                       # Average number of references to valid blocks.
system.cache.tags.warmup_cycle                      0                       # Cycle when the warmup percentage was hit.
system.cache.tags.tag_accesses                      0                       # Number of tag accesses
system.cache.tags.data_accesses                     0                       # Number of data accesses
system.cache.tags.power_state.pwrStateResidencyTicks::UNDEFINED 501349237000                       # Cumulative time (in ticks) in various power states
system.clk_domain.clock                          1000                       # Clock period in ticks
system.clk_domain.voltage_domain.voltage            1                       # Voltage in Volts
system.cachebus.snoops                              0                       # Total snoops (count)
system.cachebus.snoopTraffic                        0                       # Total snoop traffic (bytes)
system.cachebus.snoop_fanout::samples               0                       # Request fanout histogram
system.cachebus.snoop_fanout::mean                nan                       # Request fanout histogram
system.cachebus.snoop_fanout::stdev               nan                       # Request fanout histogram
system.cachebus.snoop_fanout::underflows            0                       # Request fanout histogram
system.cachebus.snoop_fanout::0                     0                       # Request fanout histogram
system.cachebus.snoop_fanout::overflows             0                       # Request fanout histogram
system.cachebus.snoop_fanout::min_value             0                       # Request fanout histogram
system.cachebus.snoop_fanout::max_value             0                       # Request fanout histogram
system.cachebus.snoop_fanout::total                 0                       # Request fanout histogram
system.cachebus.power_state.pwrStateResidencyTicks::UNDEFINED 501349237000                       # Cumulative time (in ticks) in various power states
system.cpu.dtb.walker.power_state.pwrStateResidencyTicks::UNDEFINED 501349237000                       # Cumulative time (in ticks) in various power states
system.cpu.interrupts.clk_domain.clock          16000                       # Clock period in ticks
system.cpu.itb.walker.power_state.pwrStateResidencyTicks::UNDEFINED 501349237000                       # Cumulative time (in ticks) in various power states
system.cpu.power_state.numTransitions               1                       # Number of power state transitions
system.cpu.power_state.pwrStateResidencyTicks::ON 501349237000                       # Cumulative time (in ticks) in various power states

---------- End Simulation Statistics   ----------
