
---------- Begin Simulation Statistics ----------
final_tick                                 4159877000                       # Number of ticks from beginning of simulation (restored from checkpoints and never reset)
host_inst_rate                                 101025                       # Simulator instruction rate (inst/s)
host_mem_usage                               34236160                       # Number of bytes of host memory used
host_op_rate                                   197718                       # Simulator op (including micro ops) rate (op/s)
host_seconds                                     9.90                       # Real time elapsed on the host
host_tick_rate                              420240537                       # Simulator tick rate (ticks/s)
sim_freq                                 1000000000000                       # Frequency of simulated ticks
sim_insts                                     1000002                       # Number of instructions simulated
sim_ops                                       1957157                       # Number of ops (including micro ops) simulated
sim_seconds                                  0.004160                       # Number of seconds simulated
sim_ticks                                  4159877000                       # Number of ticks simulated
system.cpu.Branches                            218834                       # Number of branches fetched
system.cpu.committedInsts                     1000002                       # Number of instructions committed
system.cpu.committedOps                       1957157                       # Number of ops (including micro ops) committed
system.cpu.dtb.rdAccesses                      183755                       # TLB accesses on read requests
system.cpu.dtb.rdMisses                            35                       # TLB misses on read requests
system.cpu.dtb.wrAccesses                      130607                       # TLB accesses on write requests
system.cpu.dtb.wrMisses                            92                       # TLB misses on write requests
system.cpu.idle_fraction                            0                       # Percentage of idle cycles
system.cpu.itb.rdAccesses                           0                       # TLB accesses on read requests
system.cpu.itb.rdMisses                             0                       # TLB misses on read requests
system.cpu.itb.wrAccesses                     1330404                       # TLB accesses on write requests
system.cpu.itb.wrMisses                            90                       # TLB misses on write requests
system.cpu.not_idle_fraction                        1                       # Percentage of non-idle cycles
system.cpu.numCycles                          4159866                       # number of cpu cycles simulated
system.cpu.numWorkItemsCompleted                    0                       # number of work items this cpu completed
system.cpu.numWorkItemsStarted                      0                       # number of work items this cpu started
system.cpu.num_busy_cycles                    4159866                       # Number of busy cycles
system.cpu.num_cc_register_reads              1243314                       # number of times the CC registers were read
system.cpu.num_cc_register_writes              640821                       # number of times the CC registers were written
system.cpu.num_conditional_control_insts       167670                       # number of instructions that are conditional controls
system.cpu.num_fp_alu_accesses                  84075                       # Number of float alu accesses
system.cpu.num_fp_insts                         84075                       # number of float instructions
system.cpu.num_fp_register_reads               125488                       # number of times the floating registers were read
system.cpu.num_fp_register_writes               65671                       # number of times the floating registers were written
system.cpu.num_func_calls                       28327                       # number of times a function call or return occured
system.cpu.num_idle_cycles                          0                       # Number of idle cycles
system.cpu.num_int_alu_accesses               1896342                       # Number of integer alu accesses
system.cpu.num_int_insts                      1896342                       # number of integer instructions
system.cpu.num_int_register_reads             3666946                       # number of times the integer registers were read
system.cpu.num_int_register_writes            1559945                       # number of times the integer registers were written
system.cpu.num_load_insts                      182942                       # Number of load instructions
system.cpu.num_mem_refs                        313440                       # number of memory refs
system.cpu.num_store_insts                     130498                       # Number of store instructions
system.cpu.num_vec_alu_accesses                     0                       # Number of vector alu accesses
system.cpu.num_vec_insts                            0                       # number of vector instructions
system.cpu.num_vec_register_reads                   0                       # number of times the vector registers were read
system.cpu.num_vec_register_writes                  0                       # number of times the vector registers were written
system.cpu.op_class::No_OpClass                 15396      0.79%      0.79% # Class of executed instruction
system.cpu.op_class::IntAlu                   1556163     79.51%     80.30% # Class of executed instruction
system.cpu.op_class::IntMult                     1609      0.08%     80.38% # Class of executed instruction
system.cpu.op_class::IntDiv                     12886      0.66%     81.04% # Class of executed instruction
system.cpu.op_class::FloatAdd                    1125      0.06%     81.10% # Class of executed instruction
system.cpu.op_class::FloatCmp                       0      0.00%     81.10% # Class of executed instruction
system.cpu.op_class::FloatCvt                       0      0.00%     81.10% # Class of executed instruction
system.cpu.op_class::FloatMult                      0      0.00%     81.10% # Class of executed instruction
system.cpu.op_class::FloatMultAcc                   0      0.00%     81.10% # Class of executed instruction
system.cpu.op_class::FloatDiv                       0      0.00%     81.10% # Class of executed instruction
system.cpu.op_class::FloatMisc                      0      0.00%     81.10% # Class of executed instruction
system.cpu.op_class::FloatSqrt                      0      0.00%     81.10% # Class of executed instruction
system.cpu.op_class::SimdAdd                      506      0.03%     81.12% # Class of executed instruction
system.cpu.op_class::SimdAddAcc                     0      0.00%     81.12% # Class of executed instruction
system.cpu.op_class::SimdAlu                    16697      0.85%     81.97% # Class of executed instruction
system.cpu.op_class::SimdCmp                        0      0.00%     81.97% # Class of executed instruction
system.cpu.op_class::SimdCvt                    13394      0.68%     82.66% # Class of executed instruction
system.cpu.op_class::SimdMisc                   15714      0.80%     83.46% # Class of executed instruction
system.cpu.op_class::SimdMult                       0      0.00%     83.46% # Class of executed instruction
system.cpu.op_class::SimdMultAcc                    0      0.00%     83.46% # Class of executed instruction
system.cpu.op_class::SimdShift                    827      0.04%     83.50% # Class of executed instruction
system.cpu.op_class::SimdShiftAcc                   0      0.00%     83.50% # Class of executed instruction
system.cpu.op_class::SimdDiv                        0      0.00%     83.50% # Class of executed instruction
system.cpu.op_class::SimdSqrt                       0      0.00%     83.50% # Class of executed instruction
system.cpu.op_class::SimdFloatAdd                4280      0.22%     83.72% # Class of executed instruction
system.cpu.op_class::SimdFloatAlu                   0      0.00%     83.72% # Class of executed instruction
system.cpu.op_class::SimdFloatCmp                   0      0.00%     83.72% # Class of executed instruction
system.cpu.op_class::SimdFloatCvt                1712      0.09%     83.81% # Class of executed instruction
system.cpu.op_class::SimdFloatDiv                   0      0.00%     83.81% # Class of executed instruction
system.cpu.op_class::SimdFloatMisc                  0      0.00%     83.81% # Class of executed instruction
system.cpu.op_class::SimdFloatMult               2568      0.13%     83.94% # Class of executed instruction
system.cpu.op_class::SimdFloatMultAcc               0      0.00%     83.94% # Class of executed instruction
system.cpu.op_class::SimdFloatSqrt                856      0.04%     83.99% # Class of executed instruction
system.cpu.op_class::SimdReduceAdd                  0      0.00%     83.99% # Class of executed instruction
system.cpu.op_class::SimdReduceAlu                  0      0.00%     83.99% # Class of executed instruction
system.cpu.op_class::SimdReduceCmp                  0      0.00%     83.99% # Class of executed instruction
system.cpu.op_class::SimdFloatReduceAdd             0      0.00%     83.99% # Class of executed instruction
system.cpu.op_class::SimdFloatReduceCmp             0      0.00%     83.99% # Class of executed instruction
system.cpu.op_class::SimdAes                        0      0.00%     83.99% # Class of executed instruction
system.cpu.op_class::SimdAesMix                     0      0.00%     83.99% # Class of executed instruction
system.cpu.op_class::SimdSha1Hash                   0      0.00%     83.99% # Class of executed instruction
system.cpu.op_class::SimdSha1Hash2                  0      0.00%     83.99% # Class of executed instruction
system.cpu.op_class::SimdSha256Hash                 0      0.00%     83.99% # Class of executed instruction
system.cpu.op_class::SimdSha256Hash2                0      0.00%     83.99% # Class of executed instruction
system.cpu.op_class::SimdShaSigma2                  0      0.00%     83.99% # Class of executed instruction
system.cpu.op_class::SimdShaSigma3                  0      0.00%     83.99% # Class of executed instruction
system.cpu.op_class::SimdPredAlu                    0      0.00%     83.99% # Class of executed instruction
system.cpu.op_class::MemRead                   160903      8.22%     92.21% # Class of executed instruction
system.cpu.op_class::MemWrite                  126794      6.48%     98.68% # Class of executed instruction
system.cpu.op_class::FloatMemRead               22039      1.13%     99.81% # Class of executed instruction
system.cpu.op_class::FloatMemWrite               3704      0.19%    100.00% # Class of executed instruction
system.cpu.op_class::IprAccess                      0      0.00%    100.00% # Class of executed instruction
system.cpu.op_class::InstPrefetch                   0      0.00%    100.00% # Class of executed instruction
system.cpu.op_class::total                    1957173                       # Class of executed instruction
system.cpu.workload.numSyscalls                    34                       # Number of system calls
system.dynamic_cache.flushTicks                     0                       # Ticks taken to flush
system.dynamic_cache.numFlushes                     0                       # Number of Flushes Taken
system.cache_small.demand_hits::.cpu.inst        11521                       # number of demand (read+write) hits
system.cache_small.demand_hits::.cpu.data          805                       # number of demand (read+write) hits
system.cache_small.demand_hits::total           12326                       # number of demand (read+write) hits
system.cache_small.overall_hits::.cpu.inst        11521                       # number of overall hits
system.cache_small.overall_hits::.cpu.data          805                       # number of overall hits
system.cache_small.overall_hits::total          12326                       # number of overall hits
system.cache_small.demand_misses::.cpu.inst          982                       # number of demand (read+write) misses
system.cache_small.demand_misses::.cpu.data         3775                       # number of demand (read+write) misses
system.cache_small.demand_misses::total          4757                       # number of demand (read+write) misses
system.cache_small.overall_misses::.cpu.inst          982                       # number of overall misses
system.cache_small.overall_misses::.cpu.data         3775                       # number of overall misses
system.cache_small.overall_misses::total         4757                       # number of overall misses
system.cache_small.demand_miss_latency::.cpu.inst     58932000                       # number of demand (read+write) miss cycles
system.cache_small.demand_miss_latency::.cpu.data    219483000                       # number of demand (read+write) miss cycles
system.cache_small.demand_miss_latency::total    278415000                       # number of demand (read+write) miss cycles
system.cache_small.overall_miss_latency::.cpu.inst     58932000                       # number of overall miss cycles
system.cache_small.overall_miss_latency::.cpu.data    219483000                       # number of overall miss cycles
system.cache_small.overall_miss_latency::total    278415000                       # number of overall miss cycles
system.cache_small.demand_accesses::.cpu.inst        12503                       # number of demand (read+write) accesses
system.cache_small.demand_accesses::.cpu.data         4580                       # number of demand (read+write) accesses
system.cache_small.demand_accesses::total        17083                       # number of demand (read+write) accesses
system.cache_small.overall_accesses::.cpu.inst        12503                       # number of overall (read+write) accesses
system.cache_small.overall_accesses::.cpu.data         4580                       # number of overall (read+write) accesses
system.cache_small.overall_accesses::total        17083                       # number of overall (read+write) accesses
system.cache_small.demand_miss_rate::.cpu.inst     0.078541                       # miss rate for demand accesses
system.cache_small.demand_miss_rate::.cpu.data     0.824236                       # miss rate for demand accesses
system.cache_small.demand_miss_rate::total     0.278464                       # miss rate for demand accesses
system.cache_small.overall_miss_rate::.cpu.inst     0.078541                       # miss rate for overall accesses
system.cache_small.overall_miss_rate::.cpu.data     0.824236                       # miss rate for overall accesses
system.cache_small.overall_miss_rate::total     0.278464                       # miss rate for overall accesses
system.cache_small.demand_avg_miss_latency::.cpu.inst 60012.219959                       # average overall miss latency
system.cache_small.demand_avg_miss_latency::.cpu.data 58141.192053                       # average overall miss latency
system.cache_small.demand_avg_miss_latency::total 58527.433256                       # average overall miss latency
system.cache_small.overall_avg_miss_latency::.cpu.inst 60012.219959                       # average overall miss latency
system.cache_small.overall_avg_miss_latency::.cpu.data 58141.192053                       # average overall miss latency
system.cache_small.overall_avg_miss_latency::total 58527.433256                       # average overall miss latency
system.cache_small.blocked_cycles::no_mshrs            0                       # number of cycles access was blocked
system.cache_small.blocked_cycles::no_targets            0                       # number of cycles access was blocked
system.cache_small.blocked::no_mshrs                0                       # number of cycles access was blocked
system.cache_small.blocked::no_targets              0                       # number of cycles access was blocked
system.cache_small.avg_blocked_cycles::no_mshrs          nan                       # average number of cycles each access was blocked
system.cache_small.avg_blocked_cycles::no_targets          nan                       # average number of cycles each access was blocked
system.cache_small.writebacks::.writebacks            3                       # number of writebacks
system.cache_small.writebacks::total                3                       # number of writebacks
system.cache_small.demand_mshr_misses::.cpu.inst          982                       # number of demand (read+write) MSHR misses
system.cache_small.demand_mshr_misses::.cpu.data         3775                       # number of demand (read+write) MSHR misses
system.cache_small.demand_mshr_misses::total         4757                       # number of demand (read+write) MSHR misses
system.cache_small.overall_mshr_misses::.cpu.inst          982                       # number of overall MSHR misses
system.cache_small.overall_mshr_misses::.cpu.data         3775                       # number of overall MSHR misses
system.cache_small.overall_mshr_misses::total         4757                       # number of overall MSHR misses
system.cache_small.demand_mshr_miss_latency::.cpu.inst     56968000                       # number of demand (read+write) MSHR miss cycles
system.cache_small.demand_mshr_miss_latency::.cpu.data    211933000                       # number of demand (read+write) MSHR miss cycles
system.cache_small.demand_mshr_miss_latency::total    268901000                       # number of demand (read+write) MSHR miss cycles
system.cache_small.overall_mshr_miss_latency::.cpu.inst     56968000                       # number of overall MSHR miss cycles
system.cache_small.overall_mshr_miss_latency::.cpu.data    211933000                       # number of overall MSHR miss cycles
system.cache_small.overall_mshr_miss_latency::total    268901000                       # number of overall MSHR miss cycles
system.cache_small.demand_mshr_miss_rate::.cpu.inst     0.078541                       # mshr miss rate for demand accesses
system.cache_small.demand_mshr_miss_rate::.cpu.data     0.824236                       # mshr miss rate for demand accesses
system.cache_small.demand_mshr_miss_rate::total     0.278464                       # mshr miss rate for demand accesses
system.cache_small.overall_mshr_miss_rate::.cpu.inst     0.078541                       # mshr miss rate for overall accesses
system.cache_small.overall_mshr_miss_rate::.cpu.data     0.824236                       # mshr miss rate for overall accesses
system.cache_small.overall_mshr_miss_rate::total     0.278464                       # mshr miss rate for overall accesses
system.cache_small.demand_avg_mshr_miss_latency::.cpu.inst 58012.219959                       # average overall mshr miss latency
system.cache_small.demand_avg_mshr_miss_latency::.cpu.data 56141.192053                       # average overall mshr miss latency
system.cache_small.demand_avg_mshr_miss_latency::total 56527.433256                       # average overall mshr miss latency
system.cache_small.overall_avg_mshr_miss_latency::.cpu.inst 58012.219959                       # average overall mshr miss latency
system.cache_small.overall_avg_mshr_miss_latency::.cpu.data 56141.192053                       # average overall mshr miss latency
system.cache_small.overall_avg_mshr_miss_latency::total 56527.433256                       # average overall mshr miss latency
system.cache_small.replacements                    71                       # number of replacements
system.cache_small.ReadReq_hits::.cpu.inst        11521                       # number of ReadReq hits
system.cache_small.ReadReq_hits::.cpu.data          805                       # number of ReadReq hits
system.cache_small.ReadReq_hits::total          12326                       # number of ReadReq hits
system.cache_small.ReadReq_misses::.cpu.inst          982                       # number of ReadReq misses
system.cache_small.ReadReq_misses::.cpu.data         3775                       # number of ReadReq misses
system.cache_small.ReadReq_misses::total         4757                       # number of ReadReq misses
system.cache_small.ReadReq_miss_latency::.cpu.inst     58932000                       # number of ReadReq miss cycles
system.cache_small.ReadReq_miss_latency::.cpu.data    219483000                       # number of ReadReq miss cycles
system.cache_small.ReadReq_miss_latency::total    278415000                       # number of ReadReq miss cycles
system.cache_small.ReadReq_accesses::.cpu.inst        12503                       # number of ReadReq accesses(hits+misses)
system.cache_small.ReadReq_accesses::.cpu.data         4580                       # number of ReadReq accesses(hits+misses)
system.cache_small.ReadReq_accesses::total        17083                       # number of ReadReq accesses(hits+misses)
system.cache_small.ReadReq_miss_rate::.cpu.inst     0.078541                       # miss rate for ReadReq accesses
system.cache_small.ReadReq_miss_rate::.cpu.data     0.824236                       # miss rate for ReadReq accesses
system.cache_small.ReadReq_miss_rate::total     0.278464                       # miss rate for ReadReq accesses
system.cache_small.ReadReq_avg_miss_latency::.cpu.inst 60012.219959                       # average ReadReq miss latency
system.cache_small.ReadReq_avg_miss_latency::.cpu.data 58141.192053                       # average ReadReq miss latency
system.cache_small.ReadReq_avg_miss_latency::total 58527.433256                       # average ReadReq miss latency
system.cache_small.ReadReq_mshr_misses::.cpu.inst          982                       # number of ReadReq MSHR misses
system.cache_small.ReadReq_mshr_misses::.cpu.data         3775                       # number of ReadReq MSHR misses
system.cache_small.ReadReq_mshr_misses::total         4757                       # number of ReadReq MSHR misses
system.cache_small.ReadReq_mshr_miss_latency::.cpu.inst     56968000                       # number of ReadReq MSHR miss cycles
system.cache_small.ReadReq_mshr_miss_latency::.cpu.data    211933000                       # number of ReadReq MSHR miss cycles
system.cache_small.ReadReq_mshr_miss_latency::total    268901000                       # number of ReadReq MSHR miss cycles
system.cache_small.ReadReq_mshr_miss_rate::.cpu.inst     0.078541                       # mshr miss rate for ReadReq accesses
system.cache_small.ReadReq_mshr_miss_rate::.cpu.data     0.824236                       # mshr miss rate for ReadReq accesses
system.cache_small.ReadReq_mshr_miss_rate::total     0.278464                       # mshr miss rate for ReadReq accesses
system.cache_small.ReadReq_avg_mshr_miss_latency::.cpu.inst 58012.219959                       # average ReadReq mshr miss latency
system.cache_small.ReadReq_avg_mshr_miss_latency::.cpu.data 56141.192053                       # average ReadReq mshr miss latency
system.cache_small.ReadReq_avg_mshr_miss_latency::total 56527.433256                       # average ReadReq mshr miss latency
system.cache_small.WritebackDirty_hits::.writebacks         3949                       # number of WritebackDirty hits
system.cache_small.WritebackDirty_hits::total         3949                       # number of WritebackDirty hits
system.cache_small.WritebackDirty_accesses::.writebacks         3949                       # number of WritebackDirty accesses(hits+misses)
system.cache_small.WritebackDirty_accesses::total         3949                       # number of WritebackDirty accesses(hits+misses)
system.cache_small.power_state.pwrStateResidencyTicks::UNDEFINED   4159877000                       # Cumulative time (in ticks) in various power states
system.cache_small.tags.tagsinuse         3756.295166                       # Cycle average of tags in use
system.cache_small.tags.total_refs                172                       # Total number of references to valid blocks.
system.cache_small.tags.sampled_refs               71                       # Sample count of references to valid blocks.
system.cache_small.tags.avg_refs             2.422535                       # Average number of references to valid blocks.
system.cache_small.tags.warmup_cycle            76000                       # Cycle when the warmup percentage was hit.
system.cache_small.tags.occ_blocks::.writebacks     0.361014                       # Average occupied blocks per requestor
system.cache_small.tags.occ_blocks::.cpu.inst   842.740607                       # Average occupied blocks per requestor
system.cache_small.tags.occ_blocks::.cpu.data  2913.193545                       # Average occupied blocks per requestor
system.cache_small.tags.occ_percent::.writebacks     0.000011                       # Average percentage of cache occupancy
system.cache_small.tags.occ_percent::.cpu.inst     0.025718                       # Average percentage of cache occupancy
system.cache_small.tags.occ_percent::.cpu.data     0.088904                       # Average percentage of cache occupancy
system.cache_small.tags.occ_percent::total     0.114633                       # Average percentage of cache occupancy
system.cache_small.tags.occ_task_id_blocks::1024         4687                       # Occupied blocks per task id
system.cache_small.tags.age_task_id_blocks_1024::0            5                       # Occupied blocks per task id
system.cache_small.tags.age_task_id_blocks_1024::1           63                       # Occupied blocks per task id
system.cache_small.tags.age_task_id_blocks_1024::2          158                       # Occupied blocks per task id
system.cache_small.tags.age_task_id_blocks_1024::3         4461                       # Occupied blocks per task id
system.cache_small.tags.occ_task_id_percent::1024     0.143036                       # Percentage of cache occupancy per task id
system.cache_small.tags.tag_accesses            25790                       # Number of tag accesses
system.cache_small.tags.data_accesses           25790                       # Number of data accesses
system.cache_small.tags.power_state.pwrStateResidencyTicks::UNDEFINED   4159877000                       # Cumulative time (in ticks) in various power states
system.icache.demand_hits::.cpu.inst          1302046                       # number of demand (read+write) hits
system.icache.demand_hits::total              1302046                       # number of demand (read+write) hits
system.icache.overall_hits::.cpu.inst         1302046                       # number of overall hits
system.icache.overall_hits::total             1302046                       # number of overall hits
system.icache.demand_misses::.cpu.inst          28358                       # number of demand (read+write) misses
system.icache.demand_misses::total              28358                       # number of demand (read+write) misses
system.icache.overall_misses::.cpu.inst         28358                       # number of overall misses
system.icache.overall_misses::total             28358                       # number of overall misses
system.icache.demand_miss_latency::.cpu.inst    532559000                       # number of demand (read+write) miss cycles
system.icache.demand_miss_latency::total    532559000                       # number of demand (read+write) miss cycles
system.icache.overall_miss_latency::.cpu.inst    532559000                       # number of overall miss cycles
system.icache.overall_miss_latency::total    532559000                       # number of overall miss cycles
system.icache.demand_accesses::.cpu.inst      1330404                       # number of demand (read+write) accesses
system.icache.demand_accesses::total          1330404                       # number of demand (read+write) accesses
system.icache.overall_accesses::.cpu.inst      1330404                       # number of overall (read+write) accesses
system.icache.overall_accesses::total         1330404                       # number of overall (read+write) accesses
system.icache.demand_miss_rate::.cpu.inst     0.021315                       # miss rate for demand accesses
system.icache.demand_miss_rate::total        0.021315                       # miss rate for demand accesses
system.icache.overall_miss_rate::.cpu.inst     0.021315                       # miss rate for overall accesses
system.icache.overall_miss_rate::total       0.021315                       # miss rate for overall accesses
system.icache.demand_avg_miss_latency::.cpu.inst 18779.850483                       # average overall miss latency
system.icache.demand_avg_miss_latency::total 18779.850483                       # average overall miss latency
system.icache.overall_avg_miss_latency::.cpu.inst 18779.850483                       # average overall miss latency
system.icache.overall_avg_miss_latency::total 18779.850483                       # average overall miss latency
system.icache.blocked_cycles::no_mshrs              0                       # number of cycles access was blocked
system.icache.blocked_cycles::no_targets            0                       # number of cycles access was blocked
system.icache.blocked::no_mshrs                     0                       # number of cycles access was blocked
system.icache.blocked::no_targets                   0                       # number of cycles access was blocked
system.icache.avg_blocked_cycles::no_mshrs          nan                       # average number of cycles each access was blocked
system.icache.avg_blocked_cycles::no_targets          nan                       # average number of cycles each access was blocked
system.icache.demand_mshr_misses::.cpu.inst        28358                       # number of demand (read+write) MSHR misses
system.icache.demand_mshr_misses::total         28358                       # number of demand (read+write) MSHR misses
system.icache.overall_mshr_misses::.cpu.inst        28358                       # number of overall MSHR misses
system.icache.overall_mshr_misses::total        28358                       # number of overall MSHR misses
system.icache.demand_mshr_miss_latency::.cpu.inst    475843000                       # number of demand (read+write) MSHR miss cycles
system.icache.demand_mshr_miss_latency::total    475843000                       # number of demand (read+write) MSHR miss cycles
system.icache.overall_mshr_miss_latency::.cpu.inst    475843000                       # number of overall MSHR miss cycles
system.icache.overall_mshr_miss_latency::total    475843000                       # number of overall MSHR miss cycles
system.icache.demand_mshr_miss_rate::.cpu.inst     0.021315                       # mshr miss rate for demand accesses
system.icache.demand_mshr_miss_rate::total     0.021315                       # mshr miss rate for demand accesses
system.icache.overall_mshr_miss_rate::.cpu.inst     0.021315                       # mshr miss rate for overall accesses
system.icache.overall_mshr_miss_rate::total     0.021315                       # mshr miss rate for overall accesses
system.icache.demand_avg_mshr_miss_latency::.cpu.inst 16779.850483                       # average overall mshr miss latency
system.icache.demand_avg_mshr_miss_latency::total 16779.850483                       # average overall mshr miss latency
system.icache.overall_avg_mshr_miss_latency::.cpu.inst 16779.850483                       # average overall mshr miss latency
system.icache.overall_avg_mshr_miss_latency::total 16779.850483                       # average overall mshr miss latency
system.icache.replacements                      28102                       # number of replacements
system.icache.ReadReq_hits::.cpu.inst         1302046                       # number of ReadReq hits
system.icache.ReadReq_hits::total             1302046                       # number of ReadReq hits
system.icache.ReadReq_misses::.cpu.inst         28358                       # number of ReadReq misses
system.icache.ReadReq_misses::total             28358                       # number of ReadReq misses
system.icache.ReadReq_miss_latency::.cpu.inst    532559000                       # number of ReadReq miss cycles
system.icache.ReadReq_miss_latency::total    532559000                       # number of ReadReq miss cycles
system.icache.ReadReq_accesses::.cpu.inst      1330404                       # number of ReadReq accesses(hits+misses)
system.icache.ReadReq_accesses::total         1330404                       # number of ReadReq accesses(hits+misses)
system.icache.ReadReq_miss_rate::.cpu.inst     0.021315                       # miss rate for ReadReq accesses
system.icache.ReadReq_miss_rate::total       0.021315                       # miss rate for ReadReq accesses
system.icache.ReadReq_avg_miss_latency::.cpu.inst 18779.850483                       # average ReadReq miss latency
system.icache.ReadReq_avg_miss_latency::total 18779.850483                       # average ReadReq miss latency
system.icache.ReadReq_mshr_misses::.cpu.inst        28358                       # number of ReadReq MSHR misses
system.icache.ReadReq_mshr_misses::total        28358                       # number of ReadReq MSHR misses
system.icache.ReadReq_mshr_miss_latency::.cpu.inst    475843000                       # number of ReadReq MSHR miss cycles
system.icache.ReadReq_mshr_miss_latency::total    475843000                       # number of ReadReq MSHR miss cycles
system.icache.ReadReq_mshr_miss_rate::.cpu.inst     0.021315                       # mshr miss rate for ReadReq accesses
system.icache.ReadReq_mshr_miss_rate::total     0.021315                       # mshr miss rate for ReadReq accesses
system.icache.ReadReq_avg_mshr_miss_latency::.cpu.inst 16779.850483                       # average ReadReq mshr miss latency
system.icache.ReadReq_avg_mshr_miss_latency::total 16779.850483                       # average ReadReq mshr miss latency
system.icache.power_state.pwrStateResidencyTicks::UNDEFINED   4159877000                       # Cumulative time (in ticks) in various power states
system.icache.tags.tagsinuse               250.966411                       # Cycle average of tags in use
system.icache.tags.total_refs                 1126697                       # Total number of references to valid blocks.
system.icache.tags.sampled_refs                 28102                       # Sample count of references to valid blocks.
system.icache.tags.avg_refs                 40.093125                       # Average number of references to valid blocks.
system.icache.tags.warmup_cycle                 82000                       # Cycle when the warmup percentage was hit.
system.icache.tags.occ_blocks::.cpu.inst   250.966411                       # Average occupied blocks per requestor
system.icache.tags.occ_percent::.cpu.inst     0.980338                       # Average percentage of cache occupancy
system.icache.tags.occ_percent::total        0.980338                       # Average percentage of cache occupancy
system.icache.tags.occ_task_id_blocks::1024          256                       # Occupied blocks per task id
system.icache.tags.age_task_id_blocks_1024::0           41                       # Occupied blocks per task id
system.icache.tags.age_task_id_blocks_1024::1           86                       # Occupied blocks per task id
system.icache.tags.age_task_id_blocks_1024::2            6                       # Occupied blocks per task id
system.icache.tags.age_task_id_blocks_1024::3          123                       # Occupied blocks per task id
system.icache.tags.occ_task_id_percent::1024            1                       # Percentage of cache occupancy per task id
system.icache.tags.tag_accesses               1358762                       # Number of tag accesses
system.icache.tags.data_accesses              1358762                       # Number of data accesses
system.icache.tags.power_state.pwrStateResidencyTicks::UNDEFINED   4159877000                       # Cumulative time (in ticks) in various power states
system.membus.trans_dist::ReadReq                4757                       # Transaction distribution
system.membus.trans_dist::ReadResp               4757                       # Transaction distribution
system.membus.trans_dist::WritebackDirty            3                       # Transaction distribution
system.membus.pkt_count_system.cache_small.mem_side::system.mem_ctrl.port         9517                       # Packet count per connected master and slave (bytes)
system.membus.pkt_count_system.cache_small.mem_side::total         9517                       # Packet count per connected master and slave (bytes)
system.membus.pkt_count::total                   9517                       # Packet count per connected master and slave (bytes)
system.membus.pkt_size_system.cache_small.mem_side::system.mem_ctrl.port       304640                       # Cumulative packet size per connected master and slave (bytes)
system.membus.pkt_size_system.cache_small.mem_side::total       304640                       # Cumulative packet size per connected master and slave (bytes)
system.membus.pkt_size::total                  304640                       # Cumulative packet size per connected master and slave (bytes)
system.membus.reqLayer2.occupancy             4772000                       # Layer occupancy (ticks)
system.membus.reqLayer2.utilization               0.1                       # Layer utilization (%)
system.membus.respLayer1.occupancy           25247250                       # Layer occupancy (ticks)
system.membus.respLayer1.utilization              0.6                       # Layer utilization (%)
system.membus.power_state.pwrStateResidencyTicks::UNDEFINED   4159877000                       # Cumulative time (in ticks) in various power states
system.mem_ctrl.bytes_read::.cpu.inst           62848                       # Number of bytes read from this memory
system.mem_ctrl.bytes_read::.cpu.data          241600                       # Number of bytes read from this memory
system.mem_ctrl.bytes_read::total              304448                       # Number of bytes read from this memory
system.mem_ctrl.bytes_inst_read::.cpu.inst        62848                       # Number of instructions bytes read from this memory
system.mem_ctrl.bytes_inst_read::total          62848                       # Number of instructions bytes read from this memory
system.mem_ctrl.bytes_written::.writebacks          192                       # Number of bytes written to this memory
system.mem_ctrl.bytes_written::total              192                       # Number of bytes written to this memory
system.mem_ctrl.num_reads::.cpu.inst              982                       # Number of read requests responded to by this memory
system.mem_ctrl.num_reads::.cpu.data             3775                       # Number of read requests responded to by this memory
system.mem_ctrl.num_reads::total                 4757                       # Number of read requests responded to by this memory
system.mem_ctrl.num_writes::.writebacks             3                       # Number of write requests responded to by this memory
system.mem_ctrl.num_writes::total                   3                       # Number of write requests responded to by this memory
system.mem_ctrl.bw_read::.cpu.inst           15108139                       # Total read bandwidth from this memory (bytes/s)
system.mem_ctrl.bw_read::.cpu.data           58078640                       # Total read bandwidth from this memory (bytes/s)
system.mem_ctrl.bw_read::total               73186779                       # Total read bandwidth from this memory (bytes/s)
system.mem_ctrl.bw_inst_read::.cpu.inst      15108139                       # Instruction read bandwidth from this memory (bytes/s)
system.mem_ctrl.bw_inst_read::total          15108139                       # Instruction read bandwidth from this memory (bytes/s)
system.mem_ctrl.bw_write::.writebacks           46155                       # Write bandwidth from this memory (bytes/s)
system.mem_ctrl.bw_write::total                 46155                       # Write bandwidth from this memory (bytes/s)
system.mem_ctrl.bw_total::.writebacks           46155                       # Total bandwidth to/from this memory (bytes/s)
system.mem_ctrl.bw_total::.cpu.inst          15108139                       # Total bandwidth to/from this memory (bytes/s)
system.mem_ctrl.bw_total::.cpu.data          58078640                       # Total bandwidth to/from this memory (bytes/s)
system.mem_ctrl.bw_total::total              73232935                       # Total bandwidth to/from this memory (bytes/s)
system.mem_ctrl.avgPriority_.writebacks::samples         3.00                       # Average QoS priority value for accepted requests
system.mem_ctrl.avgPriority_.cpu.inst::samples       982.00                       # Average QoS priority value for accepted requests
system.mem_ctrl.avgPriority_.cpu.data::samples      3775.00                       # Average QoS priority value for accepted requests
system.mem_ctrl.priorityMinLatency       0.000000018750                       # per QoS priority minimum request to response latency (s)
system.mem_ctrl.priorityMaxLatency       0.000000579500                       # per QoS priority maximum request to response latency (s)
system.mem_ctrl.numReadWriteTurnArounds             0                       # Number of turnarounds from READ to WRITE
system.mem_ctrl.numWriteReadTurnArounds             0                       # Number of turnarounds from WRITE to READ
system.mem_ctrl.numStayReadState                10585                       # Number of times bus staying in READ state
system.mem_ctrl.numStayWriteState                   0                       # Number of times bus staying in WRITE state
system.mem_ctrl.readReqs                         4757                       # Number of read requests accepted
system.mem_ctrl.writeReqs                           3                       # Number of write requests accepted
system.mem_ctrl.readBursts                       4757                       # Number of DRAM read bursts, including those serviced by the write queue
system.mem_ctrl.writeBursts                         3                       # Number of DRAM write bursts, including those merged in the write queue
system.mem_ctrl.servicedByWrQ                       0                       # Number of DRAM read bursts serviced by the write queue
system.mem_ctrl.mergedWrBursts                      0                       # Number of DRAM write bursts merged with an existing one
system.mem_ctrl.neitherReadNorWriteReqs             0                       # Number of requests that are neither read nor write
system.mem_ctrl.perBankRdBursts::0                348                       # Per bank write bursts
system.mem_ctrl.perBankRdBursts::1                294                       # Per bank write bursts
system.mem_ctrl.perBankRdBursts::2                302                       # Per bank write bursts
system.mem_ctrl.perBankRdBursts::3                202                       # Per bank write bursts
system.mem_ctrl.perBankRdBursts::4                266                       # Per bank write bursts
system.mem_ctrl.perBankRdBursts::5                358                       # Per bank write bursts
system.mem_ctrl.perBankRdBursts::6                360                       # Per bank write bursts
system.mem_ctrl.perBankRdBursts::7                287                       # Per bank write bursts
system.mem_ctrl.perBankRdBursts::8                361                       # Per bank write bursts
system.mem_ctrl.perBankRdBursts::9                231                       # Per bank write bursts
system.mem_ctrl.perBankRdBursts::10               241                       # Per bank write bursts
system.mem_ctrl.perBankRdBursts::11               352                       # Per bank write bursts
system.mem_ctrl.perBankRdBursts::12               309                       # Per bank write bursts
system.mem_ctrl.perBankRdBursts::13               326                       # Per bank write bursts
system.mem_ctrl.perBankRdBursts::14               305                       # Per bank write bursts
system.mem_ctrl.perBankRdBursts::15               215                       # Per bank write bursts
system.mem_ctrl.perBankWrBursts::0                  0                       # Per bank write bursts
system.mem_ctrl.perBankWrBursts::1                  0                       # Per bank write bursts
system.mem_ctrl.perBankWrBursts::2                  0                       # Per bank write bursts
system.mem_ctrl.perBankWrBursts::3                  0                       # Per bank write bursts
system.mem_ctrl.perBankWrBursts::4                  0                       # Per bank write bursts
system.mem_ctrl.perBankWrBursts::5                  0                       # Per bank write bursts
system.mem_ctrl.perBankWrBursts::6                  0                       # Per bank write bursts
system.mem_ctrl.perBankWrBursts::7                  0                       # Per bank write bursts
system.mem_ctrl.perBankWrBursts::8                  0                       # Per bank write bursts
system.mem_ctrl.perBankWrBursts::9                  0                       # Per bank write bursts
system.mem_ctrl.perBankWrBursts::10                 0                       # Per bank write bursts
system.mem_ctrl.perBankWrBursts::11                 0                       # Per bank write bursts
system.mem_ctrl.perBankWrBursts::12                 0                       # Per bank write bursts
system.mem_ctrl.perBankWrBursts::13                 0                       # Per bank write bursts
system.mem_ctrl.perBankWrBursts::14                 0                       # Per bank write bursts
system.mem_ctrl.perBankWrBursts::15                 0                       # Per bank write bursts
system.mem_ctrl.avgRdQLen                        1.00                       # Average read queue length when enqueuing
system.mem_ctrl.avgWrQLen                        1.05                       # Average write queue length when enqueuing
system.mem_ctrl.totQLat                      30778000                       # Total ticks spent queuing
system.mem_ctrl.totBusLat                    23785000                       # Total ticks spent in databus transfers
system.mem_ctrl.totMemAccLat                119971750                       # Total ticks spent from burst creation until serviced by the DRAM
system.mem_ctrl.avgQLat                       6470.04                       # Average queueing delay per DRAM burst
system.mem_ctrl.avgBusLat                     5000.00                       # Average bus latency per DRAM burst
system.mem_ctrl.avgMemAccLat                 25220.04                       # Average memory access latency per DRAM burst
system.mem_ctrl.numRdRetry                          0                       # Number of times read queue was full causing retry
system.mem_ctrl.numWrRetry                          0                       # Number of times write queue was full causing retry
system.mem_ctrl.readRowHits                      3784                       # Number of row buffer hits during reads
system.mem_ctrl.writeRowHits                        0                       # Number of row buffer hits during writes
system.mem_ctrl.readRowHitRate                  79.55                       # Row buffer hit rate for reads
system.mem_ctrl.writeRowHitRate                  0.00                       # Row buffer hit rate for writes
system.mem_ctrl.readPktSize::0                      0                       # Read request sizes (log2)
system.mem_ctrl.readPktSize::1                      0                       # Read request sizes (log2)
system.mem_ctrl.readPktSize::2                      0                       # Read request sizes (log2)
system.mem_ctrl.readPktSize::3                      0                       # Read request sizes (log2)
system.mem_ctrl.readPktSize::4                      0                       # Read request sizes (log2)
system.mem_ctrl.readPktSize::5                      0                       # Read request sizes (log2)
system.mem_ctrl.readPktSize::6                   4757                       # Read request sizes (log2)
system.mem_ctrl.writePktSize::0                     0                       # Write request sizes (log2)
system.mem_ctrl.writePktSize::1                     0                       # Write request sizes (log2)
system.mem_ctrl.writePktSize::2                     0                       # Write request sizes (log2)
system.mem_ctrl.writePktSize::3                     0                       # Write request sizes (log2)
system.mem_ctrl.writePktSize::4                     0                       # Write request sizes (log2)
system.mem_ctrl.writePktSize::5                     0                       # Write request sizes (log2)
system.mem_ctrl.writePktSize::6                     3                       # Write request sizes (log2)
system.mem_ctrl.rdQLenPdf::0                     4757                       # What read queue length does an incoming req see
system.mem_ctrl.rdQLenPdf::1                        0                       # What read queue length does an incoming req see
system.mem_ctrl.rdQLenPdf::2                        0                       # What read queue length does an incoming req see
system.mem_ctrl.rdQLenPdf::3                        0                       # What read queue length does an incoming req see
system.mem_ctrl.rdQLenPdf::4                        0                       # What read queue length does an incoming req see
system.mem_ctrl.rdQLenPdf::5                        0                       # What read queue length does an incoming req see
system.mem_ctrl.rdQLenPdf::6                        0                       # What read queue length does an incoming req see
system.mem_ctrl.rdQLenPdf::7                        0                       # What read queue length does an incoming req see
system.mem_ctrl.rdQLenPdf::8                        0                       # What read queue length does an incoming req see
system.mem_ctrl.rdQLenPdf::9                        0                       # What read queue length does an incoming req see
system.mem_ctrl.rdQLenPdf::10                       0                       # What read queue length does an incoming req see
system.mem_ctrl.rdQLenPdf::11                       0                       # What read queue length does an incoming req see
system.mem_ctrl.rdQLenPdf::12                       0                       # What read queue length does an incoming req see
system.mem_ctrl.rdQLenPdf::13                       0                       # What read queue length does an incoming req see
system.mem_ctrl.rdQLenPdf::14                       0                       # What read queue length does an incoming req see
system.mem_ctrl.rdQLenPdf::15                       0                       # What read queue length does an incoming req see
system.mem_ctrl.rdQLenPdf::16                       0                       # What read queue length does an incoming req see
system.mem_ctrl.rdQLenPdf::17                       0                       # What read queue length does an incoming req see
system.mem_ctrl.rdQLenPdf::18                       0                       # What read queue length does an incoming req see
system.mem_ctrl.rdQLenPdf::19                       0                       # What read queue length does an incoming req see
system.mem_ctrl.rdQLenPdf::20                       0                       # What read queue length does an incoming req see
system.mem_ctrl.rdQLenPdf::21                       0                       # What read queue length does an incoming req see
system.mem_ctrl.rdQLenPdf::22                       0                       # What read queue length does an incoming req see
system.mem_ctrl.rdQLenPdf::23                       0                       # What read queue length does an incoming req see
system.mem_ctrl.rdQLenPdf::24                       0                       # What read queue length does an incoming req see
system.mem_ctrl.rdQLenPdf::25                       0                       # What read queue length does an incoming req see
system.mem_ctrl.rdQLenPdf::26                       0                       # What read queue length does an incoming req see
system.mem_ctrl.rdQLenPdf::27                       0                       # What read queue length does an incoming req see
system.mem_ctrl.rdQLenPdf::28                       0                       # What read queue length does an incoming req see
system.mem_ctrl.rdQLenPdf::29                       0                       # What read queue length does an incoming req see
system.mem_ctrl.rdQLenPdf::30                       0                       # What read queue length does an incoming req see
system.mem_ctrl.rdQLenPdf::31                       0                       # What read queue length does an incoming req see
system.mem_ctrl.wrQLenPdf::0                        1                       # What write queue length does an incoming req see
system.mem_ctrl.wrQLenPdf::1                        1                       # What write queue length does an incoming req see
system.mem_ctrl.wrQLenPdf::2                        1                       # What write queue length does an incoming req see
system.mem_ctrl.wrQLenPdf::3                        0                       # What write queue length does an incoming req see
system.mem_ctrl.wrQLenPdf::4                        0                       # What write queue length does an incoming req see
system.mem_ctrl.wrQLenPdf::5                        0                       # What write queue length does an incoming req see
system.mem_ctrl.wrQLenPdf::6                        0                       # What write queue length does an incoming req see
system.mem_ctrl.wrQLenPdf::7                        0                       # What write queue length does an incoming req see
system.mem_ctrl.wrQLenPdf::8                        0                       # What write queue length does an incoming req see
system.mem_ctrl.wrQLenPdf::9                        0                       # What write queue length does an incoming req see
system.mem_ctrl.wrQLenPdf::10                       0                       # What write queue length does an incoming req see
system.mem_ctrl.wrQLenPdf::11                       0                       # What write queue length does an incoming req see
system.mem_ctrl.wrQLenPdf::12                       0                       # What write queue length does an incoming req see
system.mem_ctrl.wrQLenPdf::13                       0                       # What write queue length does an incoming req see
system.mem_ctrl.wrQLenPdf::14                       0                       # What write queue length does an incoming req see
system.mem_ctrl.wrQLenPdf::15                       0                       # What write queue length does an incoming req see
system.mem_ctrl.wrQLenPdf::16                       0                       # What write queue length does an incoming req see
system.mem_ctrl.wrQLenPdf::17                       0                       # What write queue length does an incoming req see
system.mem_ctrl.wrQLenPdf::18                       0                       # What write queue length does an incoming req see
system.mem_ctrl.wrQLenPdf::19                       0                       # What write queue length does an incoming req see
system.mem_ctrl.wrQLenPdf::20                       0                       # What write queue length does an incoming req see
system.mem_ctrl.wrQLenPdf::21                       0                       # What write queue length does an incoming req see
system.mem_ctrl.wrQLenPdf::22                       0                       # What write queue length does an incoming req see
system.mem_ctrl.wrQLenPdf::23                       0                       # What write queue length does an incoming req see
system.mem_ctrl.wrQLenPdf::24                       0                       # What write queue length does an incoming req see
system.mem_ctrl.wrQLenPdf::25                       0                       # What write queue length does an incoming req see
system.mem_ctrl.wrQLenPdf::26                       0                       # What write queue length does an incoming req see
system.mem_ctrl.wrQLenPdf::27                       0                       # What write queue length does an incoming req see
system.mem_ctrl.wrQLenPdf::28                       0                       # What write queue length does an incoming req see
system.mem_ctrl.wrQLenPdf::29                       0                       # What write queue length does an incoming req see
system.mem_ctrl.wrQLenPdf::30                       0                       # What write queue length does an incoming req see
system.mem_ctrl.wrQLenPdf::31                       0                       # What write queue length does an incoming req see
system.mem_ctrl.wrQLenPdf::32                       0                       # What write queue length does an incoming req see
system.mem_ctrl.wrQLenPdf::33                       0                       # What write queue length does an incoming req see
system.mem_ctrl.wrQLenPdf::34                       0                       # What write queue length does an incoming req see
system.mem_ctrl.wrQLenPdf::35                       0                       # What write queue length does an incoming req see
system.mem_ctrl.wrQLenPdf::36                       0                       # What write queue length does an incoming req see
system.mem_ctrl.wrQLenPdf::37                       0                       # What write queue length does an incoming req see
system.mem_ctrl.wrQLenPdf::38                       0                       # What write queue length does an incoming req see
system.mem_ctrl.wrQLenPdf::39                       0                       # What write queue length does an incoming req see
system.mem_ctrl.wrQLenPdf::40                       0                       # What write queue length does an incoming req see
system.mem_ctrl.wrQLenPdf::41                       0                       # What write queue length does an incoming req see
system.mem_ctrl.wrQLenPdf::42                       0                       # What write queue length does an incoming req see
system.mem_ctrl.wrQLenPdf::43                       0                       # What write queue length does an incoming req see
system.mem_ctrl.wrQLenPdf::44                       0                       # What write queue length does an incoming req see
system.mem_ctrl.wrQLenPdf::45                       0                       # What write queue length does an incoming req see
system.mem_ctrl.wrQLenPdf::46                       0                       # What write queue length does an incoming req see
system.mem_ctrl.wrQLenPdf::47                       0                       # What write queue length does an incoming req see
system.mem_ctrl.wrQLenPdf::48                       0                       # What write queue length does an incoming req see
system.mem_ctrl.wrQLenPdf::49                       0                       # What write queue length does an incoming req see
system.mem_ctrl.wrQLenPdf::50                       0                       # What write queue length does an incoming req see
system.mem_ctrl.wrQLenPdf::51                       0                       # What write queue length does an incoming req see
system.mem_ctrl.wrQLenPdf::52                       0                       # What write queue length does an incoming req see
system.mem_ctrl.wrQLenPdf::53                       0                       # What write queue length does an incoming req see
system.mem_ctrl.wrQLenPdf::54                       0                       # What write queue length does an incoming req see
system.mem_ctrl.wrQLenPdf::55                       0                       # What write queue length does an incoming req see
system.mem_ctrl.wrQLenPdf::56                       0                       # What write queue length does an incoming req see
system.mem_ctrl.wrQLenPdf::57                       0                       # What write queue length does an incoming req see
system.mem_ctrl.wrQLenPdf::58                       0                       # What write queue length does an incoming req see
system.mem_ctrl.wrQLenPdf::59                       0                       # What write queue length does an incoming req see
system.mem_ctrl.wrQLenPdf::60                       0                       # What write queue length does an incoming req see
system.mem_ctrl.wrQLenPdf::61                       0                       # What write queue length does an incoming req see
system.mem_ctrl.wrQLenPdf::62                       0                       # What write queue length does an incoming req see
system.mem_ctrl.wrQLenPdf::63                       0                       # What write queue length does an incoming req see
system.mem_ctrl.bytesPerActivate::samples          972                       # Bytes accessed per row activation
system.mem_ctrl.bytesPerActivate::mean     313.086420                       # Bytes accessed per row activation
system.mem_ctrl.bytesPerActivate::gmean    195.871095                       # Bytes accessed per row activation
system.mem_ctrl.bytesPerActivate::stdev    318.259538                       # Bytes accessed per row activation
system.mem_ctrl.bytesPerActivate::0-127           315     32.41%     32.41% # Bytes accessed per row activation
system.mem_ctrl.bytesPerActivate::128-255          193     19.86%     52.26% # Bytes accessed per row activation
system.mem_ctrl.bytesPerActivate::256-383          247     25.41%     77.67% # Bytes accessed per row activation
system.mem_ctrl.bytesPerActivate::384-511           30      3.09%     80.76% # Bytes accessed per row activation
system.mem_ctrl.bytesPerActivate::512-639           21      2.16%     82.92% # Bytes accessed per row activation
system.mem_ctrl.bytesPerActivate::640-767           14      1.44%     84.36% # Bytes accessed per row activation
system.mem_ctrl.bytesPerActivate::768-895           17      1.75%     86.11% # Bytes accessed per row activation
system.mem_ctrl.bytesPerActivate::896-1023           14      1.44%     87.55% # Bytes accessed per row activation
system.mem_ctrl.bytesPerActivate::1024-1151          121     12.45%    100.00% # Bytes accessed per row activation
system.mem_ctrl.bytesPerActivate::total           972                       # Bytes accessed per row activation
system.mem_ctrl.bytesReadDRAM                  304448                       # Total number of bytes read from DRAM
system.mem_ctrl.bytesReadWrQ                        0                       # Total number of bytes read from write queue
system.mem_ctrl.bytesWritten                        0                       # Total number of bytes written to DRAM
system.mem_ctrl.bytesReadSys                   304448                       # Total read bytes from the system interface side
system.mem_ctrl.bytesWrittenSys                   192                       # Total written bytes from the system interface side
system.mem_ctrl.avgRdBW                         73.19                       # Average DRAM read bandwidth in MiByte/s
system.mem_ctrl.avgWrBW                          0.00                       # Average achieved write bandwidth in MiByte/s
system.mem_ctrl.avgRdBWSys                      73.19                       # Average system read bandwidth in MiByte/s
system.mem_ctrl.avgWrBWSys                       0.05                       # Average system write bandwidth in MiByte/s
system.mem_ctrl.peakBW                       12800.00                       # Theoretical peak bandwidth in MiByte/s
system.mem_ctrl.busUtil                          0.57                       # Data bus utilization in percentage
system.mem_ctrl.busUtilRead                      0.57                       # Data bus utilization in percentage for reads
system.mem_ctrl.busUtilWrite                     0.00                       # Data bus utilization in percentage for writes
system.mem_ctrl.totGap                     4159382000                       # Total gap between requests
system.mem_ctrl.avgGap                      873819.75                       # Average gap between requests
system.mem_ctrl.masterReadBytes::.cpu.inst        62848                       # Per-master bytes read from memory
system.mem_ctrl.masterReadBytes::.cpu.data       241600                       # Per-master bytes read from memory
system.mem_ctrl.masterReadRate::.cpu.inst 15108139.014687212184                       # Per-master bytes read from memory rate (Bytes/sec)
system.mem_ctrl.masterReadRate::.cpu.data 58078640.305951349437                       # Per-master bytes read from memory rate (Bytes/sec)
system.mem_ctrl.masterReadAccesses::.cpu.inst          982                       # Per-master read serviced memory accesses
system.mem_ctrl.masterReadAccesses::.cpu.data         3775                       # Per-master read serviced memory accesses
system.mem_ctrl.masterWriteAccesses::.writebacks            3                       # Per-master write serviced memory accesses
system.mem_ctrl.masterReadTotalLat::.cpu.inst     26202750                       # Per-master read total memory access latency
system.mem_ctrl.masterReadTotalLat::.cpu.data     93769000                       # Per-master read total memory access latency
system.mem_ctrl.masterReadAvgLat::.cpu.inst     26683.04                       # Per-master read average memory access latency
system.mem_ctrl.masterReadAvgLat::.cpu.data     24839.47                       # Per-master read average memory access latency
system.mem_ctrl.masterWriteAvgLat::.writebacks         0.00                       # Per-master write average memory access latency
system.mem_ctrl.pageHitRate                     79.50                       # Row buffer hit rate, read and write combined
system.mem_ctrl.rank1.actEnergy               4091220                       # Energy for activate commands per rank (pJ)
system.mem_ctrl.rank1.preEnergy               2174535                       # Energy for precharge commands per rank (pJ)
system.mem_ctrl.rank1.readEnergy             16707600                       # Energy for read commands per rank (pJ)
system.mem_ctrl.rank1.writeEnergy                   0                       # Energy for write commands per rank (pJ)
system.mem_ctrl.rank1.refreshEnergy      328217760.000000                       # Energy for refresh commands per rank (pJ)
system.mem_ctrl.rank1.actBackEnergy         771793110                       # Energy for active background per rank (pJ)
system.mem_ctrl.rank1.preBackEnergy         947461920                       # Energy for precharge background per rank (pJ)
system.mem_ctrl.rank1.actPowerDownEnergy            0                       # Energy for active power-down per rank (pJ)
system.mem_ctrl.rank1.prePowerDownEnergy            0                       # Energy for precharge power-down per rank (pJ)
system.mem_ctrl.rank1.selfRefreshEnergy             0                       # Energy for self refresh per rank (pJ)
system.mem_ctrl.rank1.totalEnergy          2070446145                       # Total energy per rank (pJ)
system.mem_ctrl.rank1.averagePower         497.718116                       # Core power per rank (mW)
system.mem_ctrl.rank1.totalIdleTime                 0                       # Total Idle time Per DRAM Rank
system.mem_ctrl.rank1.memoryStateTime::IDLE   2455268250                       # Time in different power states
system.mem_ctrl.rank1.memoryStateTime::REF    138840000                       # Time in different power states
system.mem_ctrl.rank1.memoryStateTime::SREF            0                       # Time in different power states
system.mem_ctrl.rank1.memoryStateTime::PRE_PDN            0                       # Time in different power states
system.mem_ctrl.rank1.memoryStateTime::ACT   1565768750                       # Time in different power states
system.mem_ctrl.rank1.memoryStateTime::ACT_PDN            0                       # Time in different power states
system.mem_ctrl.rank0.actEnergy               2856000                       # Energy for activate commands per rank (pJ)
system.mem_ctrl.rank0.preEnergy               1514205                       # Energy for precharge commands per rank (pJ)
system.mem_ctrl.rank0.readEnergy             17257380                       # Energy for read commands per rank (pJ)
system.mem_ctrl.rank0.writeEnergy                   0                       # Energy for write commands per rank (pJ)
system.mem_ctrl.rank0.refreshEnergy      328217760.000000                       # Energy for refresh commands per rank (pJ)
system.mem_ctrl.rank0.actBackEnergy         490978050                       # Energy for active background per rank (pJ)
system.mem_ctrl.rank0.preBackEnergy        1183937760                       # Energy for precharge background per rank (pJ)
system.mem_ctrl.rank0.actPowerDownEnergy            0                       # Energy for active power-down per rank (pJ)
system.mem_ctrl.rank0.prePowerDownEnergy            0                       # Energy for precharge power-down per rank (pJ)
system.mem_ctrl.rank0.selfRefreshEnergy             0                       # Energy for self refresh per rank (pJ)
system.mem_ctrl.rank0.totalEnergy          2024761155                       # Total energy per rank (pJ)
system.mem_ctrl.rank0.averagePower         486.735823                       # Core power per rank (mW)
system.mem_ctrl.rank0.totalIdleTime                 0                       # Total Idle time Per DRAM Rank
system.mem_ctrl.rank0.memoryStateTime::IDLE   3072692500                       # Time in different power states
system.mem_ctrl.rank0.memoryStateTime::REF    138840000                       # Time in different power states
system.mem_ctrl.rank0.memoryStateTime::SREF            0                       # Time in different power states
system.mem_ctrl.rank0.memoryStateTime::PRE_PDN            0                       # Time in different power states
system.mem_ctrl.rank0.memoryStateTime::ACT    948344500                       # Time in different power states
system.mem_ctrl.rank0.memoryStateTime::ACT_PDN            0                       # Time in different power states
system.mem_ctrl.power_state.pwrStateResidencyTicks::UNDEFINED   4159877000                       # Cumulative time (in ticks) in various power states
system.cache_medium.blocked_cycles::no_mshrs            0                       # number of cycles access was blocked
system.cache_medium.blocked_cycles::no_targets            0                       # number of cycles access was blocked
system.cache_medium.blocked::no_mshrs               0                       # number of cycles access was blocked
system.cache_medium.blocked::no_targets             0                       # number of cycles access was blocked
system.cache_medium.avg_blocked_cycles::no_mshrs          nan                       # average number of cycles each access was blocked
system.cache_medium.avg_blocked_cycles::no_targets          nan                       # average number of cycles each access was blocked
system.cache_medium.replacements                    0                       # number of replacements
system.cache_medium.power_state.pwrStateResidencyTicks::UNDEFINED   4159877000                       # Cumulative time (in ticks) in various power states
system.cache_medium.tags.tagsinuse                  0                       # Cycle average of tags in use
system.cache_medium.tags.total_refs                 0                       # Total number of references to valid blocks.
system.cache_medium.tags.sampled_refs               0                       # Sample count of references to valid blocks.
system.cache_medium.tags.avg_refs                 nan                       # Average number of references to valid blocks.
system.cache_medium.tags.warmup_cycle               0                       # Cycle when the warmup percentage was hit.
system.cache_medium.tags.tag_accesses               0                       # Number of tag accesses
system.cache_medium.tags.data_accesses              0                       # Number of data accesses
system.cache_medium.tags.power_state.pwrStateResidencyTicks::UNDEFINED   4159877000                       # Cumulative time (in ticks) in various power states
system.clk_domain.clock                          1000                       # Clock period in ticks
system.clk_domain.voltage_domain.voltage            1                       # Voltage in Volts
system.dcache.demand_hits::.cpu.data           307393                       # number of demand (read+write) hits
system.dcache.demand_hits::total               307393                       # number of demand (read+write) hits
system.dcache.overall_hits::.cpu.data          307397                       # number of overall hits
system.dcache.overall_hits::total              307397                       # number of overall hits
system.dcache.demand_misses::.cpu.data           6872                       # number of demand (read+write) misses
system.dcache.demand_misses::total               6872                       # number of demand (read+write) misses
system.dcache.overall_misses::.cpu.data          6949                       # number of overall misses
system.dcache.overall_misses::total              6949                       # number of overall misses
system.dcache.demand_miss_latency::.cpu.data    329139000                       # number of demand (read+write) miss cycles
system.dcache.demand_miss_latency::total    329139000                       # number of demand (read+write) miss cycles
system.dcache.overall_miss_latency::.cpu.data    334883000                       # number of overall miss cycles
system.dcache.overall_miss_latency::total    334883000                       # number of overall miss cycles
system.dcache.demand_accesses::.cpu.data       314265                       # number of demand (read+write) accesses
system.dcache.demand_accesses::total           314265                       # number of demand (read+write) accesses
system.dcache.overall_accesses::.cpu.data       314346                       # number of overall (read+write) accesses
system.dcache.overall_accesses::total          314346                       # number of overall (read+write) accesses
system.dcache.demand_miss_rate::.cpu.data     0.021867                       # miss rate for demand accesses
system.dcache.demand_miss_rate::total        0.021867                       # miss rate for demand accesses
system.dcache.overall_miss_rate::.cpu.data     0.022106                       # miss rate for overall accesses
system.dcache.overall_miss_rate::total       0.022106                       # miss rate for overall accesses
system.dcache.demand_avg_miss_latency::.cpu.data 47895.663562                       # average overall miss latency
system.dcache.demand_avg_miss_latency::total 47895.663562                       # average overall miss latency
system.dcache.overall_avg_miss_latency::.cpu.data 48191.538351                       # average overall miss latency
system.dcache.overall_avg_miss_latency::total 48191.538351                       # average overall miss latency
system.dcache.blocked_cycles::no_mshrs              0                       # number of cycles access was blocked
system.dcache.blocked_cycles::no_targets            0                       # number of cycles access was blocked
system.dcache.blocked::no_mshrs                     0                       # number of cycles access was blocked
system.dcache.blocked::no_targets                   0                       # number of cycles access was blocked
system.dcache.avg_blocked_cycles::no_mshrs          nan                       # average number of cycles each access was blocked
system.dcache.avg_blocked_cycles::no_targets          nan                       # average number of cycles each access was blocked
system.dcache.writebacks::.writebacks            5018                       # number of writebacks
system.dcache.writebacks::total                  5018                       # number of writebacks
system.dcache.demand_mshr_misses::.cpu.data         6872                       # number of demand (read+write) MSHR misses
system.dcache.demand_mshr_misses::total          6872                       # number of demand (read+write) MSHR misses
system.dcache.overall_mshr_misses::.cpu.data         6949                       # number of overall MSHR misses
system.dcache.overall_mshr_misses::total         6949                       # number of overall MSHR misses
system.dcache.demand_mshr_miss_latency::.cpu.data    315397000                       # number of demand (read+write) MSHR miss cycles
system.dcache.demand_mshr_miss_latency::total    315397000                       # number of demand (read+write) MSHR miss cycles
system.dcache.overall_mshr_miss_latency::.cpu.data    320987000                       # number of overall MSHR miss cycles
system.dcache.overall_mshr_miss_latency::total    320987000                       # number of overall MSHR miss cycles
system.dcache.demand_mshr_miss_rate::.cpu.data     0.021867                       # mshr miss rate for demand accesses
system.dcache.demand_mshr_miss_rate::total     0.021867                       # mshr miss rate for demand accesses
system.dcache.overall_mshr_miss_rate::.cpu.data     0.022106                       # mshr miss rate for overall accesses
system.dcache.overall_mshr_miss_rate::total     0.022106                       # mshr miss rate for overall accesses
system.dcache.demand_avg_mshr_miss_latency::.cpu.data 45895.954598                       # average overall mshr miss latency
system.dcache.demand_avg_mshr_miss_latency::total 45895.954598                       # average overall mshr miss latency
system.dcache.overall_avg_mshr_miss_latency::.cpu.data 46191.826162                       # average overall mshr miss latency
system.dcache.overall_avg_mshr_miss_latency::total 46191.826162                       # average overall mshr miss latency
system.dcache.replacements                       6692                       # number of replacements
system.dcache.ReadReq_hits::.cpu.data          181617                       # number of ReadReq hits
system.dcache.ReadReq_hits::total              181617                       # number of ReadReq hits
system.dcache.ReadReq_misses::.cpu.data          2057                       # number of ReadReq misses
system.dcache.ReadReq_misses::total              2057                       # number of ReadReq misses
system.dcache.ReadReq_miss_latency::.cpu.data     54060000                       # number of ReadReq miss cycles
system.dcache.ReadReq_miss_latency::total     54060000                       # number of ReadReq miss cycles
system.dcache.ReadReq_accesses::.cpu.data       183674                       # number of ReadReq accesses(hits+misses)
system.dcache.ReadReq_accesses::total          183674                       # number of ReadReq accesses(hits+misses)
system.dcache.ReadReq_miss_rate::.cpu.data     0.011199                       # miss rate for ReadReq accesses
[...]
system.dcache.tags.age_task_id_blocks_1024::2          175                       # Occupied blocks per task id
system.dcache.tags.age_task_id_blocks_1024::3           41                       # Occupied blocks per task id
system.dcache.tags.occ_task_id_percent::1024            1                       # Percentage of cache occupancy per task id
system.dcache.tags.tag_accesses               2227837                       # Number of tag accesses
system.dcache.tags.data_accesses              2227837                       # Number of data accesses
system.dcache.tags.power_state.pwrStateResidencyTicks::UNDEFINED  28168457000                       # Cumulative time (in ticks) in various power states
system.cache_large.blocked_cycles::no_mshrs            0                       # number of cycles access was blocked
system.cache_large.blocked_cycles::no_targets            0                       # number of cycles access was blocked
system.cache_large.blocked::no_mshrs                0                       # number of cycles access was blocked
system.cache_large.blocked::no_targets              0                       # number of cycles access was blocked
system.cache_large.avg_blocked_cycles::no_mshrs          nan                       # average number of cycles each access was blocked
system.cache_large.avg_blocked_cycles::no_targets          nan                       # average number of cycles each access was blocked
system.cache_large.replacements                     0                       # number of replacements
system.cache_large.power_state.pwrStateResidencyTicks::UNDEFINED  28168457000                       # Cumulative time (in ticks) in various power states
system.cache_large.tags.tagsinuse                   0                       # Cycle average of tags in use
system.cache_large.tags.total_refs                  0                       # Total number of references to valid blocks.
system.cache_large.tags.sampled_refs                0                       # Sample count of references to valid blocks.
system.cache_large.tags.avg_refs                  nan                       # Average number of references to valid blocks.
system.cache_large.tags.warmup_cycle                0                       # Cycle when the warmup percentage was hit.
system.cache_large.tags.tag_accesses                0                       # Number of tag accesses
system.cache_large.tags.data_accesses               0                       # Number of data accesses
system.cache_large.tags.power_state.pwrStateResidencyTicks::UNDEFINED  28168457000                       # Cumulative time (in ticks) in various power states
system.l2cache.demand_hits::.cpu.inst          141491                       # number of demand (read+write) hits
system.l2cache.demand_hits::.cpu.data           18688                       # number of demand (read+write) hits
system.l2cache.demand_hits::total              160179                       # number of demand (read+write) hits
system.l2cache.overall_hits::.cpu.inst         141491                       # number of overall hits
system.l2cache.overall_hits::.cpu.data          18688                       # number of overall hits
system.l2cache.overall_hits::total             160179                       # number of overall hits
system.l2cache.demand_misses::.cpu.inst        104904                       # number of demand (read+write) misses
system.l2cache.demand_misses::.cpu.data         15351                       # number of demand (read+write) misses
system.l2cache.demand_misses::total            120255                       # number of demand (read+write) misses
system.l2cache.overall_misses::.cpu.inst       104904                       # number of overall misses
system.l2cache.overall_misses::.cpu.data        15351                       # number of overall misses
system.l2cache.overall_misses::total           120255                       # number of overall misses
system.l2cache.demand_miss_latency::.cpu.inst   1432487000                       # number of demand (read+write) miss cycles
system.l2cache.demand_miss_latency::.cpu.data    618803000                       # number of demand (read+write) miss cycles
system.l2cache.demand_miss_latency::total   2051290000                       # number of demand (read+write) miss cycles
system.l2cache.overall_miss_latency::.cpu.inst   1432487000                       # number of overall miss cycles
system.l2cache.overall_miss_latency::.cpu.data    618803000                       # number of overall miss cycles
system.l2cache.overall_miss_latency::total   2051290000                       # number of overall miss cycles
system.l2cache.demand_accesses::.cpu.inst       246395                       # number of demand (read+write) accesses
system.l2cache.demand_accesses::.cpu.data        34039                       # number of demand (read+write) accesses
system.l2cache.demand_accesses::total          280434                       # number of demand (read+write) accesses
system.l2cache.overall_accesses::.cpu.inst       246395                       # number of overall (read+write) accesses
system.l2cache.overall_accesses::.cpu.data        34039                       # number of overall (read+write) accesses
system.l2cache.overall_accesses::total         280434                       # number of overall (read+write) accesses
system.l2cache.demand_miss_rate::.cpu.inst     0.425755                       # miss rate for demand accesses
system.l2cache.demand_miss_rate::.cpu.data     0.450983                       # miss rate for demand accesses
system.l2cache.demand_miss_rate::total       0.428817                       # miss rate for demand accesses
system.l2cache.overall_miss_rate::.cpu.inst     0.425755                       # miss rate for overall accesses
system.l2cache.overall_miss_rate::.cpu.data     0.450983                       # miss rate for overall accesses
system.l2cache.overall_miss_rate::total      0.428817                       # miss rate for overall accesses
system.l2cache.demand_avg_miss_latency::.cpu.inst 13655.218104                       # average overall miss latency
system.l2cache.demand_avg_miss_latency::.cpu.data 40310.272946                       # average overall miss latency
system.l2cache.demand_avg_miss_latency::total 17057.835433                       # average overall miss latency
system.l2cache.overall_avg_miss_latency::.cpu.inst 13655.218104                       # average overall miss latency
system.l2cache.overall_avg_miss_latency::.cpu.data 40310.272946                       # average overall miss latency
system.l2cache.overall_avg_miss_latency::total 17057.835433                       # average overall miss latency
system.l2cache.blocked_cycles::no_mshrs             0                       # number of cycles access was blocked
system.l2cache.blocked_cycles::no_targets            0                       # number of cycles access was blocked
system.l2cache.blocked::no_mshrs                    0                       # number of cycles access was blocked
system.l2cache.blocked::no_targets                  0                       # number of cycles access was blocked
system.l2cache.avg_blocked_cycles::no_mshrs          nan                       # average number of cycles each access was blocked
system.l2cache.avg_blocked_cycles::no_targets          nan                       # average number of cycles each access was blocked
system.l2cache.writebacks::.writebacks          12336                       # number of writebacks
system.l2cache.writebacks::total                12336                       # number of writebacks
system.l2cache.demand_mshr_misses::.cpu.inst       104904                       # number of demand (read+write) MSHR misses
system.l2cache.demand_mshr_misses::.cpu.data        15351                       # number of demand (read+write) MSHR misses
system.l2cache.demand_mshr_misses::total       120255                       # number of demand (read+write) MSHR misses
system.l2cache.overall_mshr_misses::.cpu.inst       104904                       # number of overall MSHR misses
system.l2cache.overall_mshr_misses::.cpu.data        15351                       # number of overall MSHR misses
system.l2cache.overall_mshr_misses::total       120255                       # number of overall MSHR misses
system.l2cache.demand_mshr_miss_latency::.cpu.inst   1222679000                       # number of demand (read+write) MSHR miss cycles
system.l2cache.demand_mshr_miss_latency::.cpu.data    588101000                       # number of demand (read+write) MSHR miss cycles
system.l2cache.demand_mshr_miss_latency::total   1810780000                       # number of demand (read+write) MSHR miss cycles
system.l2cache.overall_mshr_miss_latency::.cpu.inst   1222679000                       # number of overall MSHR miss cycles
system.l2cache.overall_mshr_miss_latency::.cpu.data    588101000                       # number of overall MSHR miss cycles
system.l2cache.overall_mshr_miss_latency::total   1810780000                       # number of overall MSHR miss cycles
system.l2cache.demand_mshr_miss_rate::.cpu.inst     0.425755                       # mshr miss rate for demand accesses
system.l2cache.demand_mshr_miss_rate::.cpu.data     0.450983                       # mshr miss rate for demand accesses
system.l2cache.demand_mshr_miss_rate::total     0.428817                       # mshr miss rate for demand accesses
system.l2cache.overall_mshr_miss_rate::.cpu.inst     0.425755                       # mshr miss rate for overall accesses
system.l2cache.overall_mshr_miss_rate::.cpu.data     0.450983                       # mshr miss rate for overall accesses
system.l2cache.overall_mshr_miss_rate::total     0.428817                       # mshr miss rate for overall accesses
system.l2cache.demand_avg_mshr_miss_latency::.cpu.inst 11655.218104                       # average overall mshr miss latency
system.l2cache.demand_avg_mshr_miss_latency::.cpu.data 38310.272946                       # average overall mshr miss latency
system.l2cache.demand_avg_mshr_miss_latency::total 15057.835433                       # average overall mshr miss latency
system.l2cache.overall_avg_mshr_miss_latency::.cpu.inst 11655.218104                       # average overall mshr miss latency
system.l2cache.overall_avg_mshr_miss_latency::.cpu.data 38310.272946                       # average overall mshr miss latency
system.l2cache.overall_avg_mshr_miss_latency::total 15057.835433                       # average overall mshr miss latency
system.l2cache.replacements                    128306                       # number of replacements
system.l2cache.ReadReq_hits::.cpu.inst         141491                       # number of ReadReq hits
system.l2cache.ReadReq_hits::.cpu.data          18688                       # number of ReadReq hits
system.l2cache.ReadReq_hits::total             160179                       # number of ReadReq hits
system.l2cache.ReadReq_misses::.cpu.inst       104904                       # number of ReadReq misses
system.l2cache.ReadReq_misses::.cpu.data        15351                       # number of ReadReq misses
system.l2cache.ReadReq_misses::total           120255                       # number of ReadReq misses
system.l2cache.ReadReq_miss_latency::.cpu.inst   1432487000                       # number of ReadReq miss cycles
system.l2cache.ReadReq_miss_latency::.cpu.data    618803000                       # number of ReadReq miss cycles
system.l2cache.ReadReq_miss_latency::total   2051290000                       # number of ReadReq miss cycles
system.l2cache.ReadReq_accesses::.cpu.inst       246395                       # number of ReadReq accesses(hits+misses)
system.l2cache.ReadReq_accesses::.cpu.data        34039                       # number of ReadReq accesses(hits+misses)
system.l2cache.ReadReq_accesses::total         280434                       # number of ReadReq accesses(hits+misses)
system.l2cache.ReadReq_miss_rate::.cpu.inst     0.425755                       # miss rate for ReadReq accesses
system.l2cache.ReadReq_miss_rate::.cpu.data     0.450983                       # miss rate for ReadReq accesses
system.l2cache.ReadReq_miss_rate::total      0.428817                       # miss rate for ReadReq accesses
system.l2cache.ReadReq_avg_miss_latency::.cpu.inst 13655.218104                       # average ReadReq miss latency
system.l2cache.ReadReq_avg_miss_latency::.cpu.data 40310.272946                       # average ReadReq miss latency
system.l2cache.ReadReq_avg_miss_latency::total 17057.835433                       # average ReadReq miss latency
system.l2cache.ReadReq_mshr_misses::.cpu.inst       104904                       # number of ReadReq MSHR misses
system.l2cache.ReadReq_mshr_misses::.cpu.data        15351                       # number of ReadReq MSHR misses
system.l2cache.ReadReq_mshr_misses::total       120255                       # number of ReadReq MSHR misses
system.l2cache.ReadReq_mshr_miss_latency::.cpu.inst   1222679000                       # number of ReadReq MSHR miss cycles
system.l2cache.ReadReq_mshr_miss_latency::.cpu.data    588101000                       # number of ReadReq MSHR miss cycles
system.l2cache.ReadReq_mshr_miss_latency::total   1810780000                       # number of ReadReq MSHR miss cycles
system.l2cache.ReadReq_mshr_miss_rate::.cpu.inst     0.425755                       # mshr miss rate for ReadReq accesses
system.l2cache.ReadReq_mshr_miss_rate::.cpu.data     0.450983                       # mshr miss rate for ReadReq accesses
system.l2cache.ReadReq_mshr_miss_rate::total     0.428817                       # mshr miss rate for ReadReq accesses
system.l2cache.ReadReq_avg_mshr_miss_latency::.cpu.inst 11655.218104                       # average ReadReq mshr miss latency
system.l2cache.ReadReq_avg_mshr_miss_latency::.cpu.data 38310.272946                       # average ReadReq mshr miss latency
system.l2cache.ReadReq_avg_mshr_miss_latency::total 15057.835433                       # average ReadReq mshr miss latency
system.l2cache.WritebackDirty_hits::.writebacks        19697                       # number of WritebackDirty hits
system.l2cache.WritebackDirty_hits::total        19697                       # number of WritebackDirty hits
system.l2cache.WritebackDirty_accesses::.writebacks        19697                       # number of WritebackDirty accesses(hits+misses)
system.l2cache.WritebackDirty_accesses::total        19697                       # number of WritebackDirty accesses(hits+misses)
system.l2cache.power_state.pwrStateResidencyTicks::UNDEFINED  28168457000                       # Cumulative time (in ticks) in various power states
system.l2cache.tags.tagsinuse              510.493108                       # Cycle average of tags in use
system.l2cache.tags.total_refs                 300131                       # Total number of references to valid blocks.
system.l2cache.tags.sampled_refs               128818                       # Sample count of references to valid blocks.
system.l2cache.tags.avg_refs                 2.329884                       # Average number of references to valid blocks.
system.l2cache.tags.warmup_cycle                78000                       # Cycle when the warmup percentage was hit.
system.l2cache.tags.occ_blocks::.writebacks    95.181879                       # Average occupied blocks per requestor
system.l2cache.tags.occ_blocks::.cpu.inst   207.751774                       # Average occupied blocks per requestor
system.l2cache.tags.occ_blocks::.cpu.data   207.559456                       # Average occupied blocks per requestor
system.l2cache.tags.occ_percent::.writebacks     0.185902                       # Average percentage of cache occupancy
system.l2cache.tags.occ_percent::.cpu.inst     0.405765                       # Average percentage of cache occupancy
system.l2cache.tags.occ_percent::.cpu.data     0.405390                       # Average percentage of cache occupancy
system.l2cache.tags.occ_percent::total       0.997057                       # Average percentage of cache occupancy
system.l2cache.tags.occ_task_id_blocks::1024          512                       # Occupied blocks per task id
system.l2cache.tags.age_task_id_blocks_1024::0           47                       # Occupied blocks per task id
system.l2cache.tags.age_task_id_blocks_1024::1           70                       # Occupied blocks per task id
system.l2cache.tags.age_task_id_blocks_1024::2          247                       # Occupied blocks per task id
system.l2cache.tags.age_task_id_blocks_1024::3          148                       # Occupied blocks per task id
system.l2cache.tags.occ_task_id_percent::1024            1                       # Percentage of cache occupancy per task id
system.l2cache.tags.tag_accesses               428949                       # Number of tag accesses
system.l2cache.tags.data_accesses              428949                       # Number of data accesses
system.l2cache.tags.power_state.pwrStateResidencyTicks::UNDEFINED  28168457000                       # Cumulative time (in ticks) in various power states
system.l2bar.trans_dist::ReadReq               280434                       # Transaction distribution
system.l2bar.trans_dist::ReadResp              280434                       # Transaction distribution
system.l2bar.trans_dist::WritebackDirty         19697                       # Transaction distribution
system.l2bar.pkt_count_system.dcache.mem_side::system.l2cache.cpu_side        87775                       # Packet count per connected master and slave (bytes)
system.l2bar.pkt_count_system.icache.mem_side::system.l2cache.cpu_side       492790                       # Packet count per connected master and slave (bytes)
system.l2bar.pkt_count::total                  580565                       # Packet count per connected master and slave (bytes)
system.l2bar.pkt_size_system.dcache.mem_side::system.l2cache.cpu_side      3439104                       # Cumulative packet size per connected master and slave (bytes)
system.l2bar.pkt_size_system.icache.mem_side::system.l2cache.cpu_side     15769280                       # Cumulative packet size per connected master and slave (bytes)
system.l2bar.pkt_size::total                 19208384                       # Cumulative packet size per connected master and slave (bytes)
system.l2bar.respLayer1.occupancy          1231975000                       # Layer occupancy (ticks)
system.l2bar.respLayer1.utilization               4.4                       # Layer utilization (%)
system.l2bar.reqLayer0.occupancy            378919000                       # Layer occupancy (ticks)
system.l2bar.reqLayer0.utilization                1.3                       # Layer utilization (%)
system.l2bar.respLayer0.occupancy           170195000                       # Layer occupancy (ticks)
system.l2bar.respLayer0.utilization               0.6                       # Layer utilization (%)
system.l2bar.power_state.pwrStateResidencyTicks::UNDEFINED  28168457000                       # Cumulative time (in ticks) in various power states
system.cpu.dtb.walker.power_state.pwrStateResidencyTicks::UNDEFINED  28168457000                       # Cumulative time (in ticks) in various power states
system.cpu.interrupts.clk_domain.clock          16000                       # Clock period in ticks
system.cpu.itb.walker.power_state.pwrStateResidencyTicks::UNDEFINED  28168457000                       # Cumulative time (in ticks) in various power states
system.cpu.power_state.numTransitions               1                       # Number of power state transitions
system.cpu.power_state.pwrStateResidencyTicks::ON  28168457000                       # Cumulative time (in ticks) in various power states

---------- End Simulation Statistics   ----------
