
---------- Begin Simulation Statistics ----------
final_tick                                 4159048000                       # Number of ticks from beginning of simulation (restored from checkpoints and never reset)
host_inst_rate                                  97852                       # Simulator instruction rate (inst/s)
host_mem_usage                               34321404                       # Number of bytes of host memory used
host_op_rate                                   191514                       # Simulator op (including micro ops) rate (op/s)
host_seconds                                    10.22                       # Real time elapsed on the host
host_tick_rate                              406951289                       # Simulator tick rate (ticks/s)
sim_freq                                 1000000000000                       # Frequency of simulated ticks
sim_insts                                     1000020                       # Number of instructions simulated
sim_ops                                       1957264                       # Number of ops (including micro ops) simulated
sim_seconds                                  0.004159                       # Number of seconds simulated
sim_ticks                                  4159048000                       # Number of ticks simulated
system.cpu.Branches                            218902                       # Number of branches fetched
system.cpu.committedInsts                     1000020                       # Number of instructions committed
system.cpu.committedOps                       1957264                       # Number of ops (including micro ops) committed
system.cpu.dtb.rdAccesses                      183769                       # TLB accesses on read requests
system.cpu.dtb.rdMisses                            35                       # TLB misses on read requests
system.cpu.dtb.wrAccesses                      130557                       # TLB accesses on write requests
system.cpu.dtb.wrMisses                            92                       # TLB misses on write requests
system.cpu.idle_fraction                            0                       # Percentage of idle cycles
system.cpu.itb.rdAccesses                           0                       # TLB accesses on read requests
system.cpu.itb.rdMisses                             0                       # TLB misses on read requests
system.cpu.itb.wrAccesses                     1330393                       # TLB accesses on write requests
system.cpu.itb.wrMisses                            90                       # TLB misses on write requests
system.cpu.not_idle_fraction                        1                       # Percentage of non-idle cycles
system.cpu.numCycles                          4159037                       # number of cpu cycles simulated
system.cpu.numWorkItemsCompleted                    0                       # number of work items this cpu completed
system.cpu.numWorkItemsStarted                      0                       # number of work items this cpu started
system.cpu.num_busy_cycles                    4159037                       # Number of busy cycles
system.cpu.num_cc_register_reads              1243397                       # number of times the CC registers were read
system.cpu.num_cc_register_writes              640892                       # number of times the CC registers were written
system.cpu.num_conditional_control_insts       167715                       # number of instructions that are conditional controls
system.cpu.num_fp_alu_accesses                  84047                       # Number of float alu accesses
system.cpu.num_fp_insts                         84047                       # number of float instructions
system.cpu.num_fp_register_reads               125440                       # number of times the floating registers were read
system.cpu.num_fp_register_writes               65647                       # number of times the floating registers were written
system.cpu.num_func_calls                       28357                       # number of times a function call or return occured
system.cpu.num_idle_cycles                          0                       # Number of idle cycles
system.cpu.num_int_alu_accesses               1896451                       # Number of integer alu accesses
system.cpu.num_int_insts                      1896451                       # number of integer instructions
system.cpu.num_int_register_reads             3666929                       # number of times the integer registers were read
system.cpu.num_int_register_writes            1560038                       # number of times the integer registers were written
system.cpu.num_load_insts                      182957                       # Number of load instructions
system.cpu.num_mem_refs                        313404                       # number of memory refs
system.cpu.num_store_insts                     130447                       # Number of store instructions
system.cpu.num_vec_alu_accesses                     0                       # Number of vector alu accesses
system.cpu.num_vec_insts                            0                       # number of vector instructions
system.cpu.num_vec_register_reads                   0                       # number of times the vector registers were read
system.cpu.num_vec_register_writes                  0                       # number of times the vector registers were written
system.cpu.op_class::No_OpClass                 15390      0.79%      0.79% # Class of executed instruction
system.cpu.op_class::IntAlu                   1556337     79.52%     80.30% # Class of executed instruction
system.cpu.op_class::IntMult                     1608      0.08%     80.38% # Class of executed instruction
system.cpu.op_class::IntDiv                     12886      0.66%     81.04% # Class of executed instruction
system.cpu.op_class::FloatAdd                    1125      0.06%     81.10% # Class of executed instruction
system.cpu.op_class::FloatCmp                       0      0.00%     81.10% # Class of executed instruction
system.cpu.op_class::FloatCvt                       0      0.00%     81.10% # Class of executed instruction
system.cpu.op_class::FloatMult                      0      0.00%     81.10% # Class of executed instruction
system.cpu.op_class::FloatMultAcc                   0      0.00%     81.10% # Class of executed instruction
system.cpu.op_class::FloatDiv                       0      0.00%     81.10% # Class of executed instruction
system.cpu.op_class::FloatMisc                      0      0.00%     81.10% # Class of executed instruction
system.cpu.op_class::FloatSqrt                      0      0.00%     81.10% # Class of executed instruction
system.cpu.op_class::SimdAdd                      506      0.03%     81.13% # Class of executed instruction
system.cpu.op_class::SimdAddAcc                     0      0.00%     81.13% # Class of executed instruction
system.cpu.op_class::SimdAlu                    16681      0.85%     81.98% # Class of executed instruction
system.cpu.op_class::SimdCmp                        0      0.00%     81.98% # Class of executed instruction
system.cpu.op_class::SimdCvt                    13390      0.68%     82.66% # Class of executed instruction
system.cpu.op_class::SimdMisc                   15710      0.80%     83.46% # Class of executed instruction
system.cpu.op_class::SimdMult                       0      0.00%     83.46% # Class of executed instruction
system.cpu.op_class::SimdMultAcc                    0      0.00%     83.46% # Class of executed instruction
system.cpu.op_class::SimdShift                    827      0.04%     83.51% # Class of executed instruction
system.cpu.op_class::SimdShiftAcc                   0      0.00%     83.51% # Class of executed instruction
system.cpu.op_class::SimdDiv                        0      0.00%     83.51% # Class of executed instruction
system.cpu.op_class::SimdSqrt                       0      0.00%     83.51% # Class of executed instruction
system.cpu.op_class::SimdFloatAdd                4280      0.22%     83.73% # Class of executed instruction
system.cpu.op_class::SimdFloatAlu                   0      0.00%     83.73% # Class of executed instruction
system.cpu.op_class::SimdFloatCmp                   0      0.00%     83.73% # Class of executed instruction
system.cpu.op_class::SimdFloatCvt                1712      0.09%     83.81% # Class of executed instruction
system.cpu.op_class::SimdFloatDiv                   0      0.00%     83.81% # Class of executed instruction
system.cpu.op_class::SimdFloatMisc                  0      0.00%     83.81% # Class of executed instruction
system.cpu.op_class::SimdFloatMult               2568      0.13%     83.94% # Class of executed instruction
system.cpu.op_class::SimdFloatMultAcc               0      0.00%     83.94% # Class of executed instruction
system.cpu.op_class::SimdFloatSqrt                856      0.04%     83.99% # Class of executed instruction
system.cpu.op_class::SimdReduceAdd                  0      0.00%     83.99% # Class of executed instruction
system.cpu.op_class::SimdReduceAlu                  0      0.00%     83.99% # Class of executed instruction
system.cpu.op_class::SimdReduceCmp                  0      0.00%     83.99% # Class of executed instruction
system.cpu.op_class::SimdFloatReduceAdd             0      0.00%     83.99% # Class of executed instruction
system.cpu.op_class::SimdFloatReduceCmp             0      0.00%     83.99% # Class of executed instruction
system.cpu.op_class::SimdAes                        0      0.00%     83.99% # Class of executed instruction
system.cpu.op_class::SimdAesMix                     0      0.00%     83.99% # Class of executed instruction
system.cpu.op_class::SimdSha1Hash                   0      0.00%     83.99% # Class of executed instruction
system.cpu.op_class::SimdSha1Hash2                  0      0.00%     83.99% # Class of executed instruction
system.cpu.op_class::SimdSha256Hash                 0      0.00%     83.99% # Class of executed instruction
system.cpu.op_class::SimdSha256Hash2                0      0.00%     83.99% # Class of executed instruction
system.cpu.op_class::SimdShaSigma2                  0      0.00%     83.99% # Class of executed instruction
system.cpu.op_class::SimdShaSigma3                  0      0.00%     83.99% # Class of executed instruction
system.cpu.op_class::SimdPredAlu                    0      0.00%     83.99% # Class of executed instruction
system.cpu.op_class::MemRead                   160922      8.22%     92.21% # Class of executed instruction
system.cpu.op_class::MemWrite                  126743      6.48%     98.68% # Class of executed instruction
system.cpu.op_class::FloatMemRead               22035      1.13%     99.81% # Class of executed instruction
system.cpu.op_class::FloatMemWrite               3704      0.19%    100.00% # Class of executed instruction
system.cpu.op_class::IprAccess                      0      0.00%    100.00% # Class of executed instruction
system.cpu.op_class::InstPrefetch                   0      0.00%    100.00% # Class of executed instruction
system.cpu.op_class::total                    1957280                       # Class of executed instruction
system.cpu.workload.numSyscalls                    58                       # Number of system calls
system.dynamic_cache.flushTicks                     0                       # Ticks taken to flush
system.dynamic_cache.numFlushes                     0                       # Number of Flushes Taken
system.cache_small.demand_hits::.cpu.inst        11521                       # number of demand (read+write) hits
system.cache_small.demand_hits::.cpu.data          805                       # number of demand (read+write) hits
system.cache_small.demand_hits::total           12326                       # number of demand (read+write) hits
system.cache_small.overall_hits::.cpu.inst        11521                       # number of overall hits
system.cache_small.overall_hits::.cpu.data          805                       # number of overall hits
system.cache_small.overall_hits::total          12326                       # number of overall hits
system.cache_small.demand_misses::.cpu.inst          978                       # number of demand (read+write) misses
system.cache_small.demand_misses::.cpu.data         3773                       # number of demand (read+write) misses
system.cache_small.demand_misses::total          4751                       # number of demand (read+write) misses
system.cache_small.overall_misses::.cpu.inst          978                       # number of overall misses
system.cache_small.overall_misses::.cpu.data         3773                       # number of overall misses
system.cache_small.overall_misses::total         4751                       # number of overall misses
system.cache_small.demand_miss_latency::.cpu.inst     57165000                       # number of demand (read+write) miss cycles
system.cache_small.demand_miss_latency::.cpu.data    220651000                       # number of demand (read+write) miss cycles
system.cache_small.demand_miss_latency::total    277816000                       # number of demand (read+write) miss cycles
system.cache_small.overall_miss_latency::.cpu.inst     57165000                       # number of overall miss cycles
system.cache_small.overall_miss_latency::.cpu.data    220651000                       # number of overall miss cycles
system.cache_small.overall_miss_latency::total    277816000                       # number of overall miss cycles
system.cache_small.demand_accesses::.cpu.inst        12499                       # number of demand (read+write) accesses
system.cache_small.demand_accesses::.cpu.data         4578                       # number of demand (read+write) accesses
system.cache_small.demand_accesses::total        17077                       # number of demand (read+write) accesses
system.cache_small.overall_accesses::.cpu.inst        12499                       # number of overall (read+write) accesses
system.cache_small.overall_accesses::.cpu.data         4578                       # number of overall (read+write) accesses
system.cache_small.overall_accesses::total        17077                       # number of overall (read+write) accesses
system.cache_small.demand_miss_rate::.cpu.inst     0.078246                       # miss rate for demand accesses
system.cache_small.demand_miss_rate::.cpu.data     0.824159                       # miss rate for demand accesses
system.cache_small.demand_miss_rate::total     0.278210                       # miss rate for demand accesses
system.cache_small.overall_miss_rate::.cpu.inst     0.078246                       # miss rate for overall accesses
system.cache_small.overall_miss_rate::.cpu.data     0.824159                       # miss rate for overall accesses
system.cache_small.overall_miss_rate::total     0.278210                       # miss rate for overall accesses
system.cache_small.demand_avg_miss_latency::.cpu.inst 58450.920245                       # average overall miss latency
system.cache_small.demand_avg_miss_latency::.cpu.data 58481.579645                       # average overall miss latency
system.cache_small.demand_avg_miss_latency::total 58475.268365                       # average overall miss latency
system.cache_small.overall_avg_miss_latency::.cpu.inst 58450.920245                       # average overall miss latency
system.cache_small.overall_avg_miss_latency::.cpu.data 58481.579645                       # average overall miss latency
system.cache_small.overall_avg_miss_latency::total 58475.268365                       # average overall miss latency
system.cache_small.blocked_cycles::no_mshrs            0                       # number of cycles access was blocked
system.cache_small.blocked_cycles::no_targets            0                       # number of cycles access was blocked
system.cache_small.blocked::no_mshrs                0                       # number of cycles access was blocked
system.cache_small.blocked::no_targets              0                       # number of cycles access was blocked
system.cache_small.avg_blocked_cycles::no_mshrs          nan                       # average number of cycles each access was blocked
system.cache_small.avg_blocked_cycles::no_targets          nan                       # average number of cycles each access was blocked
system.cache_small.demand_mshr_misses::.cpu.inst          978                       # number of demand (read+write) MSHR misses
system.cache_small.demand_mshr_misses::.cpu.data         3773                       # number of demand (read+write) MSHR misses
system.cache_small.demand_mshr_misses::total         4751                       # number of demand (read+write) MSHR misses
system.cache_small.overall_mshr_misses::.cpu.inst          978                       # number of overall MSHR misses
system.cache_small.overall_mshr_misses::.cpu.data         3773                       # number of overall MSHR misses
system.cache_small.overall_mshr_misses::total         4751                       # number of overall MSHR misses
system.cache_small.demand_mshr_miss_latency::.cpu.inst     55209000                       # number of demand (read+write) MSHR miss cycles
system.cache_small.demand_mshr_miss_latency::.cpu.data    213105000                       # number of demand (read+write) MSHR miss cycles
system.cache_small.demand_mshr_miss_latency::total    268314000                       # number of demand (read+write) MSHR miss cycles
system.cache_small.overall_mshr_miss_latency::.cpu.inst     55209000                       # number of overall MSHR miss cycles
system.cache_small.overall_mshr_miss_latency::.cpu.data    213105000                       # number of overall MSHR miss cycles
system.cache_small.overall_mshr_miss_latency::total    268314000                       # number of overall MSHR miss cycles
system.cache_small.demand_mshr_miss_rate::.cpu.inst     0.078246                       # mshr miss rate for demand accesses
system.cache_small.demand_mshr_miss_rate::.cpu.data     0.824159                       # mshr miss rate for demand accesses
system.cache_small.demand_mshr_miss_rate::total     0.278210                       # mshr miss rate for demand accesses
system.cache_small.overall_mshr_miss_rate::.cpu.inst     0.078246                       # mshr miss rate for overall accesses
system.cache_small.overall_mshr_miss_rate::.cpu.data     0.824159                       # mshr miss rate for overall accesses
system.cache_small.overall_mshr_miss_rate::total     0.278210                       # mshr miss rate for overall accesses
system.cache_small.demand_avg_mshr_miss_latency::.cpu.inst 56450.920245                       # average overall mshr miss latency
system.cache_small.demand_avg_mshr_miss_latency::.cpu.data 56481.579645                       # average overall mshr miss latency
system.cache_small.demand_avg_mshr_miss_latency::total 56475.268365                       # average overall mshr miss latency
system.cache_small.overall_avg_mshr_miss_latency::.cpu.inst 56450.920245                       # average overall mshr miss latency
system.cache_small.overall_avg_mshr_miss_latency::.cpu.data 56481.579645                       # average overall mshr miss latency
system.cache_small.overall_avg_mshr_miss_latency::total 56475.268365                       # average overall mshr miss latency
system.cache_small.replacements                     0                       # number of replacements
system.cache_small.ReadReq_hits::.cpu.inst        11521                       # number of ReadReq hits
system.cache_small.ReadReq_hits::.cpu.data          805                       # number of ReadReq hits
system.cache_small.ReadReq_hits::total          12326                       # number of ReadReq hits
system.cache_small.ReadReq_misses::.cpu.inst          978                       # number of ReadReq misses
system.cache_small.ReadReq_misses::.cpu.data         3773                       # number of ReadReq misses
system.cache_small.ReadReq_misses::total         4751                       # number of ReadReq misses
system.cache_small.ReadReq_miss_latency::.cpu.inst     57165000                       # number of ReadReq miss cycles
system.cache_small.ReadReq_miss_latency::.cpu.data    220651000                       # number of ReadReq miss cycles
system.cache_small.ReadReq_miss_latency::total    277816000                       # number of ReadReq miss cycles
system.cache_small.ReadReq_accesses::.cpu.inst        12499                       # number of ReadReq accesses(hits+misses)
system.cache_small.ReadReq_accesses::.cpu.data         4578                       # number of ReadReq accesses(hits+misses)
system.cache_small.ReadReq_accesses::total        17077                       # number of ReadReq accesses(hits+misses)
system.cache_small.ReadReq_miss_rate::.cpu.inst     0.078246                       # miss rate for ReadReq accesses
system.cache_small.ReadReq_miss_rate::.cpu.data     0.824159                       # miss rate for ReadReq accesses
system.cache_small.ReadReq_miss_rate::total     0.278210                       # miss rate for ReadReq accesses
system.cache_small.ReadReq_avg_miss_latency::.cpu.inst 58450.920245                       # average ReadReq miss latency
system.cache_small.ReadReq_avg_miss_latency::.cpu.data 58481.579645                       # average ReadReq miss latency
system.cache_small.ReadReq_avg_miss_latency::total 58475.268365                       # average ReadReq miss latency
system.cache_small.ReadReq_mshr_misses::.cpu.inst          978                       # number of ReadReq MSHR misses
system.cache_small.ReadReq_mshr_misses::.cpu.data         3773                       # number of ReadReq MSHR misses
system.cache_small.ReadReq_mshr_misses::total         4751                       # number of ReadReq MSHR misses
system.cache_small.ReadReq_mshr_miss_latency::.cpu.inst     55209000                       # number of ReadReq MSHR miss cycles
system.cache_small.ReadReq_mshr_miss_latency::.cpu.data    213105000                       # number of ReadReq MSHR miss cycles
system.cache_small.ReadReq_mshr_miss_latency::total    268314000                       # number of ReadReq MSHR miss cycles
system.cache_small.ReadReq_mshr_miss_rate::.cpu.inst     0.078246                       # mshr miss rate for ReadReq accesses
system.cache_small.ReadReq_mshr_miss_rate::.cpu.data     0.824159                       # mshr miss rate for ReadReq accesses
system.cache_small.ReadReq_mshr_miss_rate::total     0.278210                       # mshr miss rate for ReadReq accesses
system.cache_small.ReadReq_avg_mshr_miss_latency::.cpu.inst 56450.920245                       # average ReadReq mshr miss latency
system.cache_small.ReadReq_avg_mshr_miss_latency::.cpu.data 56481.579645                       # average ReadReq mshr miss latency
system.cache_small.ReadReq_avg_mshr_miss_latency::total 56475.268365                       # average ReadReq mshr miss latency
system.cache_small.WritebackDirty_hits::.writebacks         3949                       # number of WritebackDirty hits
system.cache_small.WritebackDirty_hits::total         3949                       # number of WritebackDirty hits
system.cache_small.WritebackDirty_accesses::.writebacks         3949                       # number of WritebackDirty accesses(hits+misses)
system.cache_small.WritebackDirty_accesses::total         3949                       # number of WritebackDirty accesses(hits+misses)
system.cache_small.power_state.pwrStateResidencyTicks::UNDEFINED   4159048000                       # Cumulative time (in ticks) in various power states
system.cache_small.tags.tagsinuse         3780.468164                       # Cycle average of tags in use
system.cache_small.tags.total_refs                  0                       # Total number of references to valid blocks.
system.cache_small.tags.sampled_refs                0                       # Sample count of references to valid blocks.
system.cache_small.tags.avg_refs                  nan                       # Average number of references to valid blocks.
system.cache_small.tags.warmup_cycle            76000                       # Cycle when the warmup percentage was hit.
system.cache_small.tags.occ_blocks::.cpu.inst   861.424832                       # Average occupied blocks per requestor
system.cache_small.tags.occ_blocks::.cpu.data  2919.043332                       # Average occupied blocks per requestor
system.cache_small.tags.occ_percent::.cpu.inst     0.006572                       # Average percentage of cache occupancy
system.cache_small.tags.occ_percent::.cpu.data     0.022271                       # Average percentage of cache occupancy
system.cache_small.tags.occ_percent::total     0.028843                       # Average percentage of cache occupancy
system.cache_small.tags.occ_task_id_blocks::1024         4751                       # Occupied blocks per task id
system.cache_small.tags.age_task_id_blocks_1024::0            3                       # Occupied blocks per task id
system.cache_small.tags.age_task_id_blocks_1024::1           64                       # Occupied blocks per task id
system.cache_small.tags.age_task_id_blocks_1024::2          156                       # Occupied blocks per task id
system.cache_small.tags.age_task_id_blocks_1024::3         4528                       # Occupied blocks per task id
system.cache_small.tags.occ_task_id_percent::1024     0.036247                       # Percentage of cache occupancy per task id
system.cache_small.tags.tag_accesses            25777                       # Number of tag accesses
system.cache_small.tags.data_accesses           25777                       # Number of data accesses
system.cache_small.tags.power_state.pwrStateResidencyTicks::UNDEFINED   4159048000                       # Cumulative time (in ticks) in various power states
system.icache.demand_hits::.cpu.inst          1302041                       # number of demand (read+write) hits
system.icache.demand_hits::total              1302041                       # number of demand (read+write) hits
system.icache.overall_hits::.cpu.inst         1302041                       # number of overall hits
system.icache.overall_hits::total             1302041                       # number of overall hits
system.icache.demand_misses::.cpu.inst          28352                       # number of demand (read+write) misses
system.icache.demand_misses::total              28352                       # number of demand (read+write) misses
system.icache.overall_misses::.cpu.inst         28352                       # number of overall misses
system.icache.overall_misses::total             28352                       # number of overall misses
system.icache.demand_miss_latency::.cpu.inst    530694000                       # number of demand (read+write) miss cycles
system.icache.demand_miss_latency::total    530694000                       # number of demand (read+write) miss cycles
system.icache.overall_miss_latency::.cpu.inst    530694000                       # number of overall miss cycles
system.icache.overall_miss_latency::total    530694000                       # number of overall miss cycles
system.icache.demand_accesses::.cpu.inst      1330393                       # number of demand (read+write) accesses
system.icache.demand_accesses::total          1330393                       # number of demand (read+write) accesses
system.icache.overall_accesses::.cpu.inst      1330393                       # number of overall (read+write) accesses
system.icache.overall_accesses::total         1330393                       # number of overall (read+write) accesses
system.icache.demand_miss_rate::.cpu.inst     0.021311                       # miss rate for demand accesses
system.icache.demand_miss_rate::total        0.021311                       # miss rate for demand accesses
system.icache.overall_miss_rate::.cpu.inst     0.021311                       # miss rate for overall accesses
system.icache.overall_miss_rate::total       0.021311                       # miss rate for overall accesses
system.icache.demand_avg_miss_latency::.cpu.inst 18718.044582                       # average overall miss latency
system.icache.demand_avg_miss_latency::total 18718.044582                       # average overall miss latency
system.icache.overall_avg_miss_latency::.cpu.inst 18718.044582                       # average overall miss latency
system.icache.overall_avg_miss_latency::total 18718.044582                       # average overall miss latency
system.icache.blocked_cycles::no_mshrs              0                       # number of cycles access was blocked
system.icache.blocked_cycles::no_targets            0                       # number of cycles access was blocked
system.icache.blocked::no_mshrs                     0                       # number of cycles access was blocked
system.icache.blocked::no_targets                   0                       # number of cycles access was blocked
system.icache.avg_blocked_cycles::no_mshrs          nan                       # average number of cycles each access was blocked
system.icache.avg_blocked_cycles::no_targets          nan                       # average number of cycles each access was blocked
system.icache.demand_mshr_misses::.cpu.inst        28352                       # number of demand (read+write) MSHR misses
system.icache.demand_mshr_misses::total         28352                       # number of demand (read+write) MSHR misses
system.icache.overall_mshr_misses::.cpu.inst        28352                       # number of overall MSHR misses
system.icache.overall_mshr_misses::total        28352                       # number of overall MSHR misses
system.icache.demand_mshr_miss_latency::.cpu.inst    473990000                       # number of demand (read+write) MSHR miss cycles
system.icache.demand_mshr_miss_latency::total    473990000                       # number of demand (read+write) MSHR miss cycles
system.icache.overall_mshr_miss_latency::.cpu.inst    473990000                       # number of overall MSHR miss cycles
system.icache.overall_mshr_miss_latency::total    473990000                       # number of overall MSHR miss cycles
system.icache.demand_mshr_miss_rate::.cpu.inst     0.021311                       # mshr miss rate for demand accesses
system.icache.demand_mshr_miss_rate::total     0.021311                       # mshr miss rate for demand accesses
system.icache.overall_mshr_miss_rate::.cpu.inst     0.021311                       # mshr miss rate for overall accesses
system.icache.overall_mshr_miss_rate::total     0.021311                       # mshr miss rate for overall accesses
system.icache.demand_avg_mshr_miss_latency::.cpu.inst 16718.044582                       # average overall mshr miss latency
system.icache.demand_avg_mshr_miss_latency::total 16718.044582                       # average overall mshr miss latency
system.icache.overall_avg_mshr_miss_latency::.cpu.inst 16718.044582                       # average overall mshr miss latency
system.icache.overall_avg_mshr_miss_latency::total 16718.044582                       # average overall mshr miss latency
system.icache.replacements                      28096                       # number of replacements
system.icache.ReadReq_hits::.cpu.inst         1302041                       # number of ReadReq hits
system.icache.ReadReq_hits::total             1302041                       # number of ReadReq hits
system.icache.ReadReq_misses::.cpu.inst         28352                       # number of ReadReq misses
system.icache.ReadReq_misses::total             28352                       # number of ReadReq misses
system.icache.ReadReq_miss_latency::.cpu.inst    530694000                       # number of ReadReq miss cycles
system.icache.ReadReq_miss_latency::total    530694000                       # number of ReadReq miss cycles
system.icache.ReadReq_accesses::.cpu.inst      1330393                       # number of ReadReq accesses(hits+misses)
system.icache.ReadReq_accesses::total         1330393                       # number of ReadReq accesses(hits+misses)
system.icache.ReadReq_miss_rate::.cpu.inst     0.021311                       # miss rate for ReadReq accesses
system.icache.ReadReq_miss_rate::total       0.021311                       # miss rate for ReadReq accesses
system.icache.ReadReq_avg_miss_latency::.cpu.inst 18718.044582                       # average ReadReq miss latency
system.icache.ReadReq_avg_miss_latency::total 18718.044582                       # average ReadReq miss latency
system.icache.ReadReq_mshr_misses::.cpu.inst        28352                       # number of ReadReq MSHR misses
system.icache.ReadReq_mshr_misses::total        28352                       # number of ReadReq MSHR misses
system.icache.ReadReq_mshr_miss_latency::.cpu.inst    473990000                       # number of ReadReq MSHR miss cycles
system.icache.ReadReq_mshr_miss_latency::total    473990000                       # number of ReadReq MSHR miss cycles
system.icache.ReadReq_mshr_miss_rate::.cpu.inst     0.021311                       # mshr miss rate for ReadReq accesses
system.icache.ReadReq_mshr_miss_rate::total     0.021311                       # mshr miss rate for ReadReq accesses
system.icache.ReadReq_avg_mshr_miss_latency::.cpu.inst 16718.044582                       # average ReadReq mshr miss latency
system.icache.ReadReq_avg_mshr_miss_latency::total 16718.044582                       # average ReadReq mshr miss latency
system.icache.power_state.pwrStateResidencyTicks::UNDEFINED   4159048000                       # Cumulative time (in ticks) in various power states
system.icache.tags.tagsinuse               250.962801                       # Cycle average of tags in use
system.icache.tags.total_refs                 1127164                       # Total number of references to valid blocks.
system.icache.tags.sampled_refs                 28096                       # Sample count of references to valid blocks.
system.icache.tags.avg_refs                 40.118309                       # Average number of references to valid blocks.
system.icache.tags.warmup_cycle                 82000                       # Cycle when the warmup percentage was hit.
system.icache.tags.occ_blocks::.cpu.inst   250.962801                       # Average occupied blocks per requestor
system.icache.tags.occ_percent::.cpu.inst     0.980323                       # Average percentage of cache occupancy
system.icache.tags.occ_percent::total        0.980323                       # Average percentage of cache occupancy
system.icache.tags.occ_task_id_blocks::1024          256                       # Occupied blocks per task id
system.icache.tags.age_task_id_blocks_1024::0           38                       # Occupied blocks per task id
system.icache.tags.age_task_id_blocks_1024::1           89                       # Occupied blocks per task id
system.icache.tags.age_task_id_blocks_1024::2            6                       # Occupied blocks per task id
system.icache.tags.age_task_id_blocks_1024::3          123                       # Occupied blocks per task id
system.icache.tags.occ_task_id_percent::1024            1                       # Percentage of cache occupancy per task id
system.icache.tags.tag_accesses               1358745                       # Number of tag accesses
system.icache.tags.data_accesses              1358745                       # Number of data accesses
system.icache.tags.power_state.pwrStateResidencyTicks::UNDEFINED   4159048000                       # Cumulative time (in ticks) in various power states
system.membus.trans_dist::ReadReq                4751                       # Transaction distribution
system.membus.trans_dist::ReadResp               4751                       # Transaction distribution
system.membus.pkt_count_system.cache_small.mem_side::system.mem_ctrl.port         9502                       # Packet count per connected master and slave (bytes)
system.membus.pkt_count_system.cache_small.mem_side::total         9502                       # Packet count per connected master and slave (bytes)
system.membus.pkt_count::total                   9502                       # Packet count per connected master and slave (bytes)
system.membus.pkt_size_system.cache_small.mem_side::system.mem_ctrl.port       304064                       # Cumulative packet size per connected master and slave (bytes)
system.membus.pkt_size_system.cache_small.mem_side::total       304064                       # Cumulative packet size per connected master and slave (bytes)
system.membus.pkt_size::total                  304064                       # Cumulative packet size per connected master and slave (bytes)
system.membus.reqLayer2.occupancy             4751000                       # Layer occupancy (ticks)
system.membus.reqLayer2.utilization               0.1                       # Layer utilization (%)
system.membus.respLayer1.occupancy           25212750                       # Layer occupancy (ticks)
system.membus.respLayer1.utilization              0.6                       # Layer utilization (%)
system.membus.power_state.pwrStateResidencyTicks::UNDEFINED   4159048000                       # Cumulative time (in ticks) in various power states
system.mem_ctrl.bytes_read::.cpu.inst           62592                       # Number of bytes read from this memory
system.mem_ctrl.bytes_read::.cpu.data          241472                       # Number of bytes read from this memory
system.mem_ctrl.bytes_read::total              304064                       # Number of bytes read from this memory
system.mem_ctrl.bytes_inst_read::.cpu.inst        62592                       # Number of instructions bytes read from this memory
system.mem_ctrl.bytes_inst_read::total          62592                       # Number of instructions bytes read from this memory
system.mem_ctrl.num_reads::.cpu.inst              978                       # Number of read requests responded to by this memory
system.mem_ctrl.num_reads::.cpu.data             3773                       # Number of read requests responded to by this memory
system.mem_ctrl.num_reads::total                 4751                       # Number of read requests responded to by this memory
system.mem_ctrl.bw_read::.cpu.inst           15049598                       # Total read bandwidth from this memory (bytes/s)
system.mem_ctrl.bw_read::.cpu.data           58059441                       # Total read bandwidth from this memory (bytes/s)
system.mem_ctrl.bw_read::total               73109038                       # Total read bandwidth from this memory (bytes/s)
system.mem_ctrl.bw_inst_read::.cpu.inst      15049598                       # Instruction read bandwidth from this memory (bytes/s)
system.mem_ctrl.bw_inst_read::total          15049598                       # Instruction read bandwidth from this memory (bytes/s)
system.mem_ctrl.bw_total::.cpu.inst          15049598                       # Total bandwidth to/from this memory (bytes/s)
system.mem_ctrl.bw_total::.cpu.data          58059441                       # Total bandwidth to/from this memory (bytes/s)
system.mem_ctrl.bw_total::total              73109038                       # Total bandwidth to/from this memory (bytes/s)
system.mem_ctrl.avgPriority_.cpu.inst::samples       978.00                       # Average QoS priority value for accepted requests
system.mem_ctrl.avgPriority_.cpu.data::samples      3773.00                       # Average QoS priority value for accepted requests
system.mem_ctrl.priorityMinLatency       0.000000018750                       # per QoS priority minimum request to response latency (s)
system.mem_ctrl.priorityMaxLatency       0.000000579500                       # per QoS priority maximum request to response latency (s)
system.mem_ctrl.numReadWriteTurnArounds             0                       # Number of turnarounds from READ to WRITE
system.mem_ctrl.numWriteReadTurnArounds             0                       # Number of turnarounds from WRITE to READ
system.mem_ctrl.numStayReadState                10570                       # Number of times bus staying in READ state
system.mem_ctrl.numStayWriteState                   0                       # Number of times bus staying in WRITE state
system.mem_ctrl.readReqs                         4751                       # Number of read requests accepted
system.mem_ctrl.writeReqs                           0                       # Number of write requests accepted
system.mem_ctrl.readBursts                       4751                       # Number of DRAM read bursts, including those serviced by the write queue
system.mem_ctrl.writeBursts                         0                       # Number of DRAM write bursts, including those merged in the write queue
system.mem_ctrl.servicedByWrQ                       0                       # Number of DRAM read bursts serviced by the write queue
system.mem_ctrl.mergedWrBursts                      0                       # Number of DRAM write bursts merged with an existing one
system.mem_ctrl.neitherReadNorWriteReqs             0                       # Number of requests that are neither read nor write
system.mem_ctrl.perBankRdBursts::0                344                       # Per bank write bursts
system.mem_ctrl.perBankRdBursts::1                294                       # Per bank write bursts
system.mem_ctrl.perBankRdBursts::2                300                       # Per bank write bursts
system.mem_ctrl.perBankRdBursts::3                202                       # Per bank write bursts
system.mem_ctrl.perBankRdBursts::4                266                       # Per bank write bursts
system.mem_ctrl.perBankRdBursts::5                358                       # Per bank write bursts
system.mem_ctrl.perBankRdBursts::6                360                       # Per bank write bursts
system.mem_ctrl.perBankRdBursts::7                287                       # Per bank write bursts
system.mem_ctrl.perBankRdBursts::8                361                       # Per bank write bursts
system.mem_ctrl.perBankRdBursts::9                231                       # Per bank write bursts
system.mem_ctrl.perBankRdBursts::10               241                       # Per bank write bursts
system.mem_ctrl.perBankRdBursts::11               352                       # Per bank write bursts
system.mem_ctrl.perBankRdBursts::12               309                       # Per bank write bursts
system.mem_ctrl.perBankRdBursts::13               326                       # Per bank write bursts
system.mem_ctrl.perBankRdBursts::14               305                       # Per bank write bursts
system.mem_ctrl.perBankRdBursts::15               215                       # Per bank write bursts
system.mem_ctrl.perBankWrBursts::0                  0                       # Per bank write bursts
system.mem_ctrl.perBankWrBursts::1                  0                       # Per bank write bursts
system.mem_ctrl.perBankWrBursts::2                  0                       # Per bank write bursts
system.mem_ctrl.perBankWrBursts::3                  0                       # Per bank write bursts
system.mem_ctrl.perBankWrBursts::4                  0                       # Per bank write bursts
system.mem_ctrl.perBankWrBursts::5                  0                       # Per bank write bursts
system.mem_ctrl.perBankWrBursts::6                  0                       # Per bank write bursts
system.mem_ctrl.perBankWrBursts::7                  0                       # Per bank write bursts
system.mem_ctrl.perBankWrBursts::8                  0                       # Per bank write bursts
system.mem_ctrl.perBankWrBursts::9                  0                       # Per bank write bursts
system.mem_ctrl.perBankWrBursts::10                 0                       # Per bank write bursts
system.mem_ctrl.perBankWrBursts::11                 0                       # Per bank write bursts
system.mem_ctrl.perBankWrBursts::12                 0                       # Per bank write bursts
system.mem_ctrl.perBankWrBursts::13                 0                       # Per bank write bursts
system.mem_ctrl.perBankWrBursts::14                 0                       # Per bank write bursts
system.mem_ctrl.perBankWrBursts::15                 0                       # Per bank write bursts
system.mem_ctrl.avgRdQLen                        1.00                       # Average read queue length when enqueuing
system.mem_ctrl.avgWrQLen                        0.00                       # Average write queue length when enqueuing
system.mem_ctrl.totQLat                      30494000                       # Total ticks spent queuing
system.mem_ctrl.totBusLat                    23755000                       # Total ticks spent in databus transfers
system.mem_ctrl.totMemAccLat                119575250                       # Total ticks spent from burst creation until serviced by the DRAM
system.mem_ctrl.avgQLat                       6418.44                       # Average queueing delay per DRAM burst
system.mem_ctrl.avgBusLat                     5000.00                       # Average bus latency per DRAM burst
system.mem_ctrl.avgMemAccLat                 25168.44                       # Average memory access latency per DRAM burst
system.mem_ctrl.numRdRetry                          0                       # Number of times read queue was full causing retry
system.mem_ctrl.numWrRetry                          0                       # Number of times write queue was full causing retry
system.mem_ctrl.readRowHits                      3781                       # Number of row buffer hits during reads
system.mem_ctrl.writeRowHits                        0                       # Number of row buffer hits during writes
system.mem_ctrl.readRowHitRate                  79.58                       # Row buffer hit rate for reads
system.mem_ctrl.writeRowHitRate                   nan                       # Row buffer hit rate for writes
system.mem_ctrl.readPktSize::0                      0                       # Read request sizes (log2)
system.mem_ctrl.readPktSize::1                      0                       # Read request sizes (log2)
system.mem_ctrl.readPktSize::2                      0                       # Read request sizes (log2)
system.mem_ctrl.readPktSize::3                      0                       # Read request sizes (log2)
system.mem_ctrl.readPktSize::4                      0                       # Read request sizes (log2)
system.mem_ctrl.readPktSize::5                      0                       # Read request sizes (log2)
system.mem_ctrl.readPktSize::6                   4751                       # Read request sizes (log2)
system.mem_ctrl.writePktSize::0                     0                       # Write request sizes (log2)
system.mem_ctrl.writePktSize::1                     0                       # Write request sizes (log2)
system.mem_ctrl.writePktSize::2                     0                       # Write request sizes (log2)
system.mem_ctrl.writePktSize::3                     0                       # Write request sizes (log2)
system.mem_ctrl.writePktSize::4                     0                       # Write request sizes (log2)
system.mem_ctrl.writePktSize::5                     0                       # Write request sizes (log2)
system.mem_ctrl.writePktSize::6                     0                       # Write request sizes (log2)
system.mem_ctrl.rdQLenPdf::0                     4751                       # What read queue length does an incoming req see
system.mem_ctrl.rdQLenPdf::1                        0                       # What read queue length does an incoming req see
system.mem_ctrl.rdQLenPdf::2                        0                       # What read queue length does an incoming req see
system.mem_ctrl.rdQLenPdf::3                        0                       # What read queue length does an incoming req see
system.mem_ctrl.rdQLenPdf::4                        0                       # What read queue length does an incoming req see
system.mem_ctrl.rdQLenPdf::5                        0                       # What read queue length does an incoming req see
system.mem_ctrl.rdQLenPdf::6                        0                       # What read queue length does an incoming req see
system.mem_ctrl.rdQLenPdf::7                        0                       # What read queue length does an incoming req see
system.mem_ctrl.rdQLenPdf::8                        0                       # What read queue length does an incoming req see
system.mem_ctrl.rdQLenPdf::9                        0                       # What read queue length does an incoming req see
system.mem_ctrl.rdQLenPdf::10                       0                       # What read queue length does an incoming req see
system.mem_ctrl.rdQLenPdf::11                       0                       # What read queue length does an incoming req see
system.mem_ctrl.rdQLenPdf::12                       0                       # What read queue length does an incoming req see
system.mem_ctrl.rdQLenPdf::13                       0                       # What read queue length does an incoming req see
system.mem_ctrl.rdQLenPdf::14                       0                       # What read queue length does an incoming req see
system.mem_ctrl.rdQLenPdf::15                       0                       # What read queue length does an incoming req see
system.mem_ctrl.rdQLenPdf::16                       0                       # What read queue length does an incoming req see
system.mem_ctrl.rdQLenPdf::17                       0                       # What read queue length does an incoming req see
system.mem_ctrl.rdQLenPdf::18                       0                       # What read queue length does an incoming req see
system.mem_ctrl.rdQLenPdf::19                       0                       # What read queue length does an incoming req see
system.mem_ctrl.rdQLenPdf::20                       0                       # What read queue length does an incoming req see
system.mem_ctrl.rdQLenPdf::21                       0                       # What read queue length does an incoming req see
system.mem_ctrl.rdQLenPdf::22                       0                       # What read queue length does an incoming req see
system.mem_ctrl.rdQLenPdf::23                       0                       # What read queue length does an incoming req see
system.mem_ctrl.rdQLenPdf::24                       0                       # What read queue length does an incoming req see
system.mem_ctrl.rdQLenPdf::25                       0                       # What read queue length does an incoming req see
system.mem_ctrl.rdQLenPdf::26                       0                       # What read queue length does an incoming req see
system.mem_ctrl.rdQLenPdf::27                       0                       # What read queue length does an incoming req see
system.mem_ctrl.rdQLenPdf::28                       0                       # What read queue length does an incoming req see
system.mem_ctrl.rdQLenPdf::29                       0                       # What read queue length does an incoming req see
system.mem_ctrl.rdQLenPdf::30                       0                       # What read queue length does an incoming req see
system.mem_ctrl.rdQLenPdf::31                       0                       # What read queue length does an incoming req see
system.mem_ctrl.wrQLenPdf::0                        0                       # What write queue length does an incoming req see
system.mem_ctrl.wrQLenPdf::1                        0                       # What write queue length does an incoming req see
system.mem_ctrl.wrQLenPdf::2                        0                       # What write queue length does an incoming req see
system.mem_ctrl.wrQLenPdf::3                        0                       # What write queue length does an incoming req see
system.mem_ctrl.wrQLenPdf::4                        0                       # What write queue length does an incoming req see
system.mem_ctrl.wrQLenPdf::5                        0                       # What write queue length does an incoming req see
system.mem_ctrl.wrQLenPdf::6                        0                       # What write queue length does an incoming req see
system.mem_ctrl.wrQLenPdf::7                        0                       # What write queue length does an incoming req see
system.mem_ctrl.wrQLenPdf::8                        0                       # What write queue length does an incoming req see
system.mem_ctrl.wrQLenPdf::9                        0                       # What write queue length does an incoming req see
system.mem_ctrl.wrQLenPdf::10                       0                       # What write queue length does an incoming req see
system.mem_ctrl.wrQLenPdf::11                       0                       # What write queue length does an incoming req see
system.mem_ctrl.wrQLenPdf::12                       0                       # What write queue length does an incoming req see
system.mem_ctrl.wrQLenPdf::13                       0                       # What write queue length does an incoming req see
system.mem_ctrl.wrQLenPdf::14                       0                       # What write queue length does an incoming req see
system.mem_ctrl.wrQLenPdf::15                       0                       # What write queue length does an incoming req see
system.mem_ctrl.wrQLenPdf::16                       0                       # What write queue length does an incoming req see
system.mem_ctrl.wrQLenPdf::17                       0                       # What write queue length does an incoming req see
system.mem_ctrl.wrQLenPdf::18                       0                       # What write queue length does an incoming req see
system.mem_ctrl.wrQLenPdf::19                       0                       # What write queue length does an incoming req see
system.mem_ctrl.wrQLenPdf::20                       0                       # What write queue length does an incoming req see
system.mem_ctrl.wrQLenPdf::21                       0                       # What write queue length does an incoming req see
system.mem_ctrl.wrQLenPdf::22                       0                       # What write queue length does an incoming req see
system.mem_ctrl.wrQLenPdf::23                       0                       # What write queue length does an incoming req see
system.mem_ctrl.wrQLenPdf::24                       0                       # What write queue length does an incoming req see
system.mem_ctrl.wrQLenPdf::25                       0                       # What write queue length does an incoming req see
system.mem_ctrl.wrQLenPdf::26                       0                       # What write queue length does an incoming req see
system.mem_ctrl.wrQLenPdf::27                       0                       # What write queue length does an incoming req see
system.mem_ctrl.wrQLenPdf::28                       0                       # What write queue length does an incoming req see
system.mem_ctrl.wrQLenPdf::29                       0                       # What write queue length does an incoming req see
system.mem_ctrl.wrQLenPdf::30                       0                       # What write queue length does an incoming req see
system.mem_ctrl.wrQLenPdf::31                       0                       # What write queue length does an incoming req see
system.mem_ctrl.wrQLenPdf::32                       0                       # What write queue length does an incoming req see
system.mem_ctrl.wrQLenPdf::33                       0                       # What write queue length does an incoming req see
system.mem_ctrl.wrQLenPdf::34                       0                       # What write queue length does an incoming req see
system.mem_ctrl.wrQLenPdf::35                       0                       # What write queue length does an incoming req see
system.mem_ctrl.wrQLenPdf::36                       0                       # What write queue length does an incoming req see
system.mem_ctrl.wrQLenPdf::37                       0                       # What write queue length does an incoming req see
system.mem_ctrl.wrQLenPdf::38                       0                       # What write queue length does an incoming req see
system.mem_ctrl.wrQLenPdf::39                       0                       # What write queue length does an incoming req see
system.mem_ctrl.wrQLenPdf::40                       0                       # What write queue length does an incoming req see
system.mem_ctrl.wrQLenPdf::41                       0                       # What write queue length does an incoming req see
system.mem_ctrl.wrQLenPdf::42                       0                       # What write queue length does an incoming req see
system.mem_ctrl.wrQLenPdf::43                       0                       # What write queue length does an incoming req see
system.mem_ctrl.wrQLenPdf::44                       0                       # What write queue length does an incoming req see
system.mem_ctrl.wrQLenPdf::45                       0                       # What write queue length does an incoming req see
system.mem_ctrl.wrQLenPdf::46                       0                       # What write queue length does an incoming req see
system.mem_ctrl.wrQLenPdf::47                       0                       # What write queue length does an incoming req see
system.mem_ctrl.wrQLenPdf::48                       0                       # What write queue length does an incoming req see
system.mem_ctrl.wrQLenPdf::49                       0                       # What write queue length does an incoming req see
system.mem_ctrl.wrQLenPdf::50                       0                       # What write queue length does an incoming req see
system.mem_ctrl.wrQLenPdf::51                       0                       # What write queue length does an incoming req see
system.mem_ctrl.wrQLenPdf::52                       0                       # What write queue length does an incoming req see
system.mem_ctrl.wrQLenPdf::53                       0                       # What write queue length does an incoming req see
system.mem_ctrl.wrQLenPdf::54                       0                       # What write queue length does an incoming req see
system.mem_ctrl.wrQLenPdf::55                       0                       # What write queue length does an incoming req see
system.mem_ctrl.wrQLenPdf::56                       0                       # What write queue length does an incoming req see
system.mem_ctrl.wrQLenPdf::57                       0                       # What write queue length does an incoming req see
system.mem_ctrl.wrQLenPdf::58                       0                       # What write queue length does an incoming req see
system.mem_ctrl.wrQLenPdf::59                       0                       # What write queue length does an incoming req see
system.mem_ctrl.wrQLenPdf::60                       0                       # What write queue length does an incoming req see
system.mem_ctrl.wrQLenPdf::61                       0                       # What write queue length does an incoming req see
system.mem_ctrl.wrQLenPdf::62                       0                       # What write queue length does an incoming req see
system.mem_ctrl.wrQLenPdf::63                       0                       # What write queue length does an incoming req see
system.mem_ctrl.bytesPerActivate::samples          969                       # Bytes accessed per row activation
system.mem_ctrl.bytesPerActivate::mean     313.725490                       # Bytes accessed per row activation
system.mem_ctrl.bytesPerActivate::gmean    195.833546                       # Bytes accessed per row activation
system.mem_ctrl.bytesPerActivate::stdev    319.786284                       # Bytes accessed per row activation
system.mem_ctrl.bytesPerActivate::0-127           314     32.40%     32.40% # Bytes accessed per row activation
system.mem_ctrl.bytesPerActivate::128-255          200     20.64%     53.04% # Bytes accessed per row activation
system.mem_ctrl.bytesPerActivate::256-383          241     24.87%     77.92% # Bytes accessed per row activation
system.mem_ctrl.bytesPerActivate::384-511           24      2.48%     80.39% # Bytes accessed per row activation
system.mem_ctrl.bytesPerActivate::512-639           20      2.06%     82.46% # Bytes accessed per row activation
system.mem_ctrl.bytesPerActivate::640-767           18      1.86%     84.31% # Bytes accessed per row activation
system.mem_ctrl.bytesPerActivate::768-895           18      1.86%     86.17% # Bytes accessed per row activation
system.mem_ctrl.bytesPerActivate::896-1023           11      1.14%     87.31% # Bytes accessed per row activation
system.mem_ctrl.bytesPerActivate::1024-1151          123     12.69%    100.00% # Bytes accessed per row activation
system.mem_ctrl.bytesPerActivate::total           969                       # Bytes accessed per row activation
system.mem_ctrl.bytesReadDRAM                  304064                       # Total number of bytes read from DRAM
system.mem_ctrl.bytesReadWrQ                        0                       # Total number of bytes read from write queue
system.mem_ctrl.bytesWritten                        0                       # Total number of bytes written to DRAM
system.mem_ctrl.bytesReadSys                   304064                       # Total read bytes from the system interface side
system.mem_ctrl.bytesWrittenSys                     0                       # Total written bytes from the system interface side
system.mem_ctrl.avgRdBW                         73.11                       # Average DRAM read bandwidth in MiByte/s
system.mem_ctrl.avgWrBW                          0.00                       # Average achieved write bandwidth in MiByte/s
system.mem_ctrl.avgRdBWSys                      73.11                       # Average system read bandwidth in MiByte/s
system.mem_ctrl.avgWrBWSys                       0.00                       # Average system write bandwidth in MiByte/s
system.mem_ctrl.peakBW                       12800.00                       # Theoretical peak bandwidth in MiByte/s
system.mem_ctrl.busUtil                          0.57                       # Data bus utilization in percentage
system.mem_ctrl.busUtilRead                      0.57                       # Data bus utilization in percentage for reads
system.mem_ctrl.busUtilWrite                     0.00                       # Data bus utilization in percentage for writes
system.mem_ctrl.totGap                     4158307000                       # Total gap between requests
system.mem_ctrl.avgGap                      875248.79                       # Average gap between requests
system.mem_ctrl.masterReadBytes::.cpu.inst        62592                       # Per-master bytes read from memory
system.mem_ctrl.masterReadBytes::.cpu.data       241472                       # Per-master bytes read from memory
system.mem_ctrl.masterReadRate::.cpu.inst 15049597.888747615740                       # Per-master bytes read from memory rate (Bytes/sec)
system.mem_ctrl.masterReadRate::.cpu.data 58059440.525812633336                       # Per-master bytes read from memory rate (Bytes/sec)
system.mem_ctrl.masterReadAccesses::.cpu.inst          978                       # Per-master read serviced memory accesses
system.mem_ctrl.masterReadAccesses::.cpu.data         3773                       # Per-master read serviced memory accesses
system.mem_ctrl.masterReadTotalLat::.cpu.inst     24569000                       # Per-master read total memory access latency
system.mem_ctrl.masterReadTotalLat::.cpu.data     95006250                       # Per-master read total memory access latency
system.mem_ctrl.masterReadAvgLat::.cpu.inst     25121.68                       # Per-master read average memory access latency
system.mem_ctrl.masterReadAvgLat::.cpu.data     25180.56                       # Per-master read average memory access latency
system.mem_ctrl.pageHitRate                     79.58                       # Row buffer hit rate, read and write combined
system.mem_ctrl.rank1.actEnergy               4084080                       # Energy for activate commands per rank (pJ)
system.mem_ctrl.rank1.preEnergy               2170740                       # Energy for precharge commands per rank (pJ)
system.mem_ctrl.rank1.readEnergy             16707600                       # Energy for read commands per rank (pJ)
system.mem_ctrl.rank1.writeEnergy                   0                       # Energy for write commands per rank (pJ)
system.mem_ctrl.rank1.refreshEnergy      328217760.000000                       # Energy for refresh commands per rank (pJ)
system.mem_ctrl.rank1.actBackEnergy         768947100                       # Energy for active background per rank (pJ)
system.mem_ctrl.rank1.preBackEnergy         949540320                       # Energy for precharge background per rank (pJ)
system.mem_ctrl.rank1.actPowerDownEnergy            0                       # Energy for active power-down per rank (pJ)
system.mem_ctrl.rank1.prePowerDownEnergy            0                       # Energy for precharge power-down per rank (pJ)
system.mem_ctrl.rank1.selfRefreshEnergy             0                       # Energy for self refresh per rank (pJ)
system.mem_ctrl.rank1.totalEnergy          2069667600                       # Total energy per rank (pJ)
system.mem_ctrl.rank1.averagePower         497.630131                       # Core power per rank (mW)
system.mem_ctrl.rank1.totalIdleTime                 0                       # Total Idle time Per DRAM Rank
system.mem_ctrl.rank1.memoryStateTime::IDLE   2460774250                       # Time in different power states
system.mem_ctrl.rank1.memoryStateTime::REF    138840000                       # Time in different power states
system.mem_ctrl.rank1.memoryStateTime::SREF            0                       # Time in different power states
system.mem_ctrl.rank1.memoryStateTime::PRE_PDN            0                       # Time in different power states
system.mem_ctrl.rank1.memoryStateTime::ACT   1559433750                       # Time in different power states
system.mem_ctrl.rank1.memoryStateTime::ACT_PDN            0                       # Time in different power states
system.mem_ctrl.rank0.actEnergy               2841720                       # Energy for activate commands per rank (pJ)
system.mem_ctrl.rank0.preEnergy               1506615                       # Energy for precharge commands per rank (pJ)
system.mem_ctrl.rank0.readEnergy             17214540                       # Energy for read commands per rank (pJ)
system.mem_ctrl.rank0.writeEnergy                   0                       # Energy for write commands per rank (pJ)
system.mem_ctrl.rank0.refreshEnergy      328217760.000000                       # Energy for refresh commands per rank (pJ)
system.mem_ctrl.rank0.actBackEnergy         485779080                       # Energy for active background per rank (pJ)
system.mem_ctrl.rank0.preBackEnergy        1187997600                       # Energy for precharge background per rank (pJ)
system.mem_ctrl.rank0.actPowerDownEnergy            0                       # Energy for active power-down per rank (pJ)
system.mem_ctrl.rank0.prePowerDownEnergy            0                       # Energy for precharge power-down per rank (pJ)
system.mem_ctrl.rank0.selfRefreshEnergy             0                       # Energy for self refresh per rank (pJ)
system.mem_ctrl.rank0.totalEnergy          2023557315                       # Total energy per rank (pJ)
system.mem_ctrl.rank0.averagePower         486.543390                       # Core power per rank (mW)
system.mem_ctrl.rank0.totalIdleTime                 0                       # Total Idle time Per DRAM Rank
system.mem_ctrl.rank0.memoryStateTime::IDLE   3083373250                       # Time in different power states
system.mem_ctrl.rank0.memoryStateTime::REF    138840000                       # Time in different power states
system.mem_ctrl.rank0.memoryStateTime::SREF            0                       # Time in different power states
system.mem_ctrl.rank0.memoryStateTime::PRE_PDN            0                       # Time in different power states
system.mem_ctrl.rank0.memoryStateTime::ACT    936834750                       # Time in different power states
system.mem_ctrl.rank0.memoryStateTime::ACT_PDN            0                       # Time in different power states
system.mem_ctrl.power_state.pwrStateResidencyTicks::UNDEFINED   4159048000                       # Cumulative time (in ticks) in various power states
system.cache_medium.blocked_cycles::no_mshrs            0                       # number of cycles access was blocked
system.cache_medium.blocked_cycles::no_targets            0                       # number of cycles access was blocked
system.cache_medium.blocked::no_mshrs               0                       # number of cycles access was blocked
system.cache_medium.blocked::no_targets             0                       # number of cycles access was blocked
system.cache_medium.avg_blocked_cycles::no_mshrs          nan                       # average number of cycles each access was blocked
system.cache_medium.avg_blocked_cycles::no_targets          nan                       # average number of cycles each access was blocked
system.cache_medium.replacements                    0                       # number of replacements
system.cache_medium.power_state.pwrStateResidencyTicks::UNDEFINED   4159048000                       # Cumulative time (in ticks) in various power states
system.cache_medium.tags.tagsinuse                  0                       # Cycle average of tags in use
system.cache_medium.tags.total_refs                 0                       # Total number of references to valid blocks.
system.cache_medium.tags.sampled_refs               0                       # Sample count of references to valid blocks.
system.cache_medium.tags.avg_refs                 nan                       # Average number of references to valid blocks.
system.cache_medium.tags.warmup_cycle               0                       # Cycle when the warmup percentage was hit.
system.cache_medium.tags.tag_accesses               0                       # Number of tag accesses
system.cache_medium.tags.data_accesses              0                       # Number of data accesses
system.cache_medium.tags.power_state.pwrStateResidencyTicks::UNDEFINED   4159048000                       # Cumulative time (in ticks) in various power states
system.clk_domain.clock                          1000                       # Clock period in ticks
system.clk_domain.voltage_domain.voltage            1                       # Voltage in Volts
system.dcache.demand_hits::.cpu.data           307359                       # number of demand (read+write) hits
system.dcache.demand_hits::total               307359                       # number of demand (read+write) hits
system.dcache.overall_hits::.cpu.data          307363                       # number of overall hits
system.dcache.overall_hits::total              307363                       # number of overall hits
system.dcache.demand_misses::.cpu.data           6870                       # number of demand (read+write) misses
system.dcache.demand_misses::total               6870                       # number of demand (read+write) misses
system.dcache.overall_misses::.cpu.data          6947                       # number of overall misses
system.dcache.overall_misses::total              6947                       # number of overall misses
system.dcache.demand_miss_latency::.cpu.data    330273000                       # number of demand (read+write) miss cycles
system.dcache.demand_miss_latency::total    330273000                       # number of demand (read+write) miss cycles
system.dcache.overall_miss_latency::.cpu.data    336017000                       # number of overall miss cycles
system.dcache.overall_miss_latency::total    336017000                       # number of overall miss cycles
system.dcache.demand_accesses::.cpu.data       314229                       # number of demand (read+write) accesses
system.dcache.demand_accesses::total           314229                       # number of demand (read+write) accesses
system.dcache.overall_accesses::.cpu.data       314310                       # number of overall (read+write) accesses
system.dcache.overall_accesses::total          314310                       # number of overall (read+write) accesses
system.dcache.demand_miss_rate::.cpu.data     0.021863                       # miss rate for demand accesses
system.dcache.demand_miss_rate::total        0.021863                       # miss rate for demand accesses
system.dcache.overall_miss_rate::.cpu.data     0.022102                       # miss rate for overall accesses
system.dcache.overall_miss_rate::total       0.022102                       # miss rate for overall accesses
system.dcache.demand_avg_miss_latency::.cpu.data 48074.672489                       # average overall miss latency
system.dcache.demand_avg_miss_latency::total 48074.672489                       # average overall miss latency
system.dcache.overall_avg_miss_latency::.cpu.data 48368.648337                       # average overall miss latency
system.dcache.overall_avg_miss_latency::total 48368.648337                       # average overall miss latency
system.dcache.blocked_cycles::no_mshrs              0                       # number of cycles access was blocked
system.dcache.blocked_cycles::no_targets            0                       # number of cycles access was blocked
system.dcache.blocked::no_mshrs                     0                       # number of cycles access was blocked
system.dcache.blocked::no_targets                   0                       # number of cycles access was blocked
system.dcache.avg_blocked_cycles::no_mshrs          nan                       # average number of cycles each access was blocked
system.dcache.avg_blocked_cycles::no_targets          nan                       # average number of cycles each access was blocked
system.dcache.writebacks::.writebacks            5018                       # number of writebacks
system.dcache.writebacks::total                  5018                       # number of writebacks
system.dcache.demand_mshr_misses::.cpu.data         6870                       # number of demand (read+write) MSHR misses
system.dcache.demand_mshr_misses::total          6870                       # number of demand (read+write) MSHR misses
system.dcache.overall_mshr_misses::.cpu.data         6947                       # number of overall MSHR misses
system.dcache.overall_mshr_misses::total         6947                       # number of overall MSHR misses
system.dcache.demand_mshr_miss_latency::.cpu.data    316535000                       # number of demand (read+write) MSHR miss cycles
system.dcache.demand_mshr_miss_latency::total    316535000                       # number of demand (read+write) MSHR miss cycles
system.dcache.overall_mshr_miss_latency::.cpu.data    322125000                       # number of overall MSHR miss cycles
system.dcache.overall_mshr_miss_latency::total    322125000                       # number of overall MSHR miss cycles
system.dcache.demand_mshr_miss_rate::.cpu.data     0.021863                       # mshr miss rate for demand accesses
system.dcache.demand_mshr_miss_rate::total     0.021863                       # mshr miss rate for demand accesses
system.dcache.overall_mshr_miss_rate::.cpu.data     0.022102                       # mshr miss rate for overall accesses
system.dcache.overall_mshr_miss_rate::total     0.022102                       # mshr miss rate for overall accesses
system.dcache.demand_avg_mshr_miss_latency::.cpu.data 46074.963610                       # average overall mshr miss latency
system.dcache.demand_avg_mshr_miss_latency::total 46074.963610                       # average overall mshr miss latency
system.dcache.overall_avg_mshr_miss_latency::.cpu.data 46368.936231                       # average overall mshr miss latency
system.dcache.overall_avg_mshr_miss_latency::total 46368.936231                       # average overall mshr miss latency
system.dcache.replacements                       6690                       # number of replacements
system.dcache.ReadReq_hits::.cpu.data          181632                       # number of ReadReq hits
system.dcache.ReadReq_hits::total              181632                       # number of ReadReq hits
system.dcache.ReadReq_misses::.cpu.data          2056                       # number of ReadReq misses
system.dcache.ReadReq_misses::total              2056                       # number of ReadReq misses
system.dcache.ReadReq_miss_latency::.cpu.data     54833000                       # number of ReadReq miss cycles
system.dcache.ReadReq_miss_latency::total     54833000                       # number of ReadReq miss cycles
system.dcache.ReadReq_accesses::.cpu.data       183688                       # number of ReadReq accesses(hits+misses)
system.dcache.ReadReq_accesses::total          183688                       # number of ReadReq accesses(hits+misses)
system.dcache.ReadReq_miss_rate::.cpu.data     0.011193                       # miss rate for ReadReq accesses
system.dcache.ReadReq_miss_rate::total       0.011193                       # miss rate for ReadReq accesses
system.dcache.ReadReq_avg_miss_latency::.cpu.data 26669.747082                       # average ReadReq miss latency
system.dcache.ReadReq_avg_miss_latency::total 26669.747082                       # average ReadReq miss latency
system.dcache.ReadReq_mshr_misses::.cpu.data         2056                       # number of ReadReq MSHR misses
system.dcache.ReadReq_mshr_misses::total         2056                       # number of ReadReq MSHR misses
system.dcache.ReadReq_mshr_miss_latency::.cpu.data     50721000                       # number of ReadReq MSHR miss cycles
system.dcache.ReadReq_mshr_miss_latency::total     50721000                       # number of ReadReq MSHR miss cycles
system.dcache.ReadReq_mshr_miss_rate::.cpu.data     0.011193                       # mshr miss rate for ReadReq accesses
system.dcache.ReadReq_mshr_miss_rate::total     0.011193                       # mshr miss rate for ReadReq accesses
system.dcache.ReadReq_avg_mshr_miss_latency::.cpu.data 24669.747082                       # average ReadReq mshr miss latency
system.dcache.ReadReq_avg_mshr_miss_latency::total 24669.747082                       # average ReadReq mshr miss latency
system.dcache.WriteReq_hits::.cpu.data         125727                       # number of WriteReq hits
system.dcache.WriteReq_hits::total             125727                       # number of WriteReq hits
system.dcache.WriteReq_misses::.cpu.data         4814                       # number of WriteReq misses
system.dcache.WriteReq_misses::total             4814                       # number of WriteReq misses
system.dcache.WriteReq_miss_latency::.cpu.data    275440000                       # number of WriteReq miss cycles
[...]
system.dcache.tags.age_task_id_blocks_1024::2          175                       # Occupied blocks per task id
system.dcache.tags.age_task_id_blocks_1024::3           41                       # Occupied blocks per task id
system.dcache.tags.occ_task_id_percent::1024            1                       # Percentage of cache occupancy per task id
system.dcache.tags.tag_accesses               2227820                       # Number of tag accesses
system.dcache.tags.data_accesses              2227820                       # Number of data accesses
system.dcache.tags.power_state.pwrStateResidencyTicks::UNDEFINED  28159573000                       # Cumulative time (in ticks) in various power states
system.cache_large.blocked_cycles::no_mshrs            0                       # number of cycles access was blocked
system.cache_large.blocked_cycles::no_targets            0                       # number of cycles access was blocked
system.cache_large.blocked::no_mshrs                0                       # number of cycles access was blocked
system.cache_large.blocked::no_targets              0                       # number of cycles access was blocked
system.cache_large.avg_blocked_cycles::no_mshrs          nan                       # average number of cycles each access was blocked
system.cache_large.avg_blocked_cycles::no_targets          nan                       # average number of cycles each access was blocked
system.cache_large.replacements                     0                       # number of replacements
system.cache_large.power_state.pwrStateResidencyTicks::UNDEFINED  28159573000                       # Cumulative time (in ticks) in various power states
system.cache_large.tags.tagsinuse                   0                       # Cycle average of tags in use
system.cache_large.tags.total_refs                  0                       # Total number of references to valid blocks.
system.cache_large.tags.sampled_refs                0                       # Sample count of references to valid blocks.
system.cache_large.tags.avg_refs                  nan                       # Average number of references to valid blocks.
system.cache_large.tags.warmup_cycle                0                       # Cycle when the warmup percentage was hit.
system.cache_large.tags.tag_accesses                0                       # Number of tag accesses
system.cache_large.tags.data_accesses               0                       # Number of data accesses
system.cache_large.tags.power_state.pwrStateResidencyTicks::UNDEFINED  28159573000                       # Cumulative time (in ticks) in various power states
system.l2cache.demand_hits::.cpu.inst          141493                       # number of demand (read+write) hits
system.l2cache.demand_hits::.cpu.data           18688                       # number of demand (read+write) hits
system.l2cache.demand_hits::total              160181                       # number of demand (read+write) hits
system.l2cache.overall_hits::.cpu.inst         141493                       # number of overall hits
system.l2cache.overall_hits::.cpu.data          18688                       # number of overall hits
system.l2cache.overall_hits::total             160181                       # number of overall hits
system.l2cache.demand_misses::.cpu.inst        104904                       # number of demand (read+write) misses
system.l2cache.demand_misses::.cpu.data         15351                       # number of demand (read+write) misses
system.l2cache.demand_misses::total            120255                       # number of demand (read+write) misses
system.l2cache.overall_misses::.cpu.inst       104904                       # number of overall misses
system.l2cache.overall_misses::.cpu.data        15351                       # number of overall misses
system.l2cache.overall_misses::total           120255                       # number of overall misses
system.l2cache.demand_miss_latency::.cpu.inst   1421402000                       # number of demand (read+write) miss cycles
system.l2cache.demand_miss_latency::.cpu.data    620984000                       # number of demand (read+write) miss cycles
system.l2cache.demand_miss_latency::total   2042386000                       # number of demand (read+write) miss cycles
system.l2cache.overall_miss_latency::.cpu.inst   1421402000                       # number of overall miss cycles
system.l2cache.overall_miss_latency::.cpu.data    620984000                       # number of overall miss cycles
system.l2cache.overall_miss_latency::total   2042386000                       # number of overall miss cycles
system.l2cache.demand_accesses::.cpu.inst       246397                       # number of demand (read+write) accesses
system.l2cache.demand_accesses::.cpu.data        34039                       # number of demand (read+write) accesses
system.l2cache.demand_accesses::total          280436                       # number of demand (read+write) accesses
system.l2cache.overall_accesses::.cpu.inst       246397                       # number of overall (read+write) accesses
system.l2cache.overall_accesses::.cpu.data        34039                       # number of overall (read+write) accesses
system.l2cache.overall_accesses::total         280436                       # number of overall (read+write) accesses
system.l2cache.demand_miss_rate::.cpu.inst     0.425752                       # miss rate for demand accesses
system.l2cache.demand_miss_rate::.cpu.data     0.450983                       # miss rate for demand accesses
system.l2cache.demand_miss_rate::total       0.428814                       # miss rate for demand accesses
system.l2cache.overall_miss_rate::.cpu.inst     0.425752                       # miss rate for overall accesses
system.l2cache.overall_miss_rate::.cpu.data     0.450983                       # miss rate for overall accesses
system.l2cache.overall_miss_rate::total      0.428814                       # miss rate for overall accesses
system.l2cache.demand_avg_miss_latency::.cpu.inst 13549.550065                       # average overall miss latency
system.l2cache.demand_avg_miss_latency::.cpu.data 40452.348381                       # average overall miss latency
system.l2cache.demand_avg_miss_latency::total 16983.792774                       # average overall miss latency
system.l2cache.overall_avg_miss_latency::.cpu.inst 13549.550065                       # average overall miss latency
system.l2cache.overall_avg_miss_latency::.cpu.data 40452.348381                       # average overall miss latency
system.l2cache.overall_avg_miss_latency::total 16983.792774                       # average overall miss latency
system.l2cache.blocked_cycles::no_mshrs             0                       # number of cycles access was blocked
system.l2cache.blocked_cycles::no_targets            0                       # number of cycles access was blocked
system.l2cache.blocked::no_mshrs                    0                       # number of cycles access was blocked
system.l2cache.blocked::no_targets                  0                       # number of cycles access was blocked
system.l2cache.avg_blocked_cycles::no_mshrs          nan                       # average number of cycles each access was blocked
system.l2cache.avg_blocked_cycles::no_targets          nan                       # average number of cycles each access was blocked
system.l2cache.writebacks::.writebacks          12336                       # number of writebacks
system.l2cache.writebacks::total                12336                       # number of writebacks
system.l2cache.demand_mshr_misses::.cpu.inst       104904                       # number of demand (read+write) MSHR misses
system.l2cache.demand_mshr_misses::.cpu.data        15351                       # number of demand (read+write) MSHR misses
system.l2cache.demand_mshr_misses::total       120255                       # number of demand (read+write) MSHR misses
system.l2cache.overall_mshr_misses::.cpu.inst       104904                       # number of overall MSHR misses
system.l2cache.overall_mshr_misses::.cpu.data        15351                       # number of overall MSHR misses
system.l2cache.overall_mshr_misses::total       120255                       # number of overall MSHR misses
system.l2cache.demand_mshr_miss_latency::.cpu.inst   1211594000                       # number of demand (read+write) MSHR miss cycles
system.l2cache.demand_mshr_miss_latency::.cpu.data    590282000                       # number of demand (read+write) MSHR miss cycles
system.l2cache.demand_mshr_miss_latency::total   1801876000                       # number of demand (read+write) MSHR miss cycles
system.l2cache.overall_mshr_miss_latency::.cpu.inst   1211594000                       # number of overall MSHR miss cycles
system.l2cache.overall_mshr_miss_latency::.cpu.data    590282000                       # number of overall MSHR miss cycles
system.l2cache.overall_mshr_miss_latency::total   1801876000                       # number of overall MSHR miss cycles
system.l2cache.demand_mshr_miss_rate::.cpu.inst     0.425752                       # mshr miss rate for demand accesses
system.l2cache.demand_mshr_miss_rate::.cpu.data     0.450983                       # mshr miss rate for demand accesses
system.l2cache.demand_mshr_miss_rate::total     0.428814                       # mshr miss rate for demand accesses
system.l2cache.overall_mshr_miss_rate::.cpu.inst     0.425752                       # mshr miss rate for overall accesses
system.l2cache.overall_mshr_miss_rate::.cpu.data     0.450983                       # mshr miss rate for overall accesses
system.l2cache.overall_mshr_miss_rate::total     0.428814                       # mshr miss rate for overall accesses
system.l2cache.demand_avg_mshr_miss_latency::.cpu.inst 11549.550065                       # average overall mshr miss latency
system.l2cache.demand_avg_mshr_miss_latency::.cpu.data 38452.348381                       # average overall mshr miss latency
system.l2cache.demand_avg_mshr_miss_latency::total 14983.792774                       # average overall mshr miss latency
system.l2cache.overall_avg_mshr_miss_latency::.cpu.inst 11549.550065                       # average overall mshr miss latency
system.l2cache.overall_avg_mshr_miss_latency::.cpu.data 38452.348381                       # average overall mshr miss latency
system.l2cache.overall_avg_mshr_miss_latency::total 14983.792774                       # average overall mshr miss latency
system.l2cache.replacements                    128306                       # number of replacements
system.l2cache.ReadReq_hits::.cpu.inst         141493                       # number of ReadReq hits
system.l2cache.ReadReq_hits::.cpu.data          18688                       # number of ReadReq hits
system.l2cache.ReadReq_hits::total             160181                       # number of ReadReq hits
system.l2cache.ReadReq_misses::.cpu.inst       104904                       # number of ReadReq misses
system.l2cache.ReadReq_misses::.cpu.data        15351                       # number of ReadReq misses
system.l2cache.ReadReq_misses::total           120255                       # number of ReadReq misses
system.l2cache.ReadReq_miss_latency::.cpu.inst   1421402000                       # number of ReadReq miss cycles
system.l2cache.ReadReq_miss_latency::.cpu.data    620984000                       # number of ReadReq miss cycles
system.l2cache.ReadReq_miss_latency::total   2042386000                       # number of ReadReq miss cycles
system.l2cache.ReadReq_accesses::.cpu.inst       246397                       # number of ReadReq accesses(hits+misses)
system.l2cache.ReadReq_accesses::.cpu.data        34039                       # number of ReadReq accesses(hits+misses)
system.l2cache.ReadReq_accesses::total         280436                       # number of ReadReq accesses(hits+misses)
system.l2cache.ReadReq_miss_rate::.cpu.inst     0.425752                       # miss rate for ReadReq accesses
system.l2cache.ReadReq_miss_rate::.cpu.data     0.450983                       # miss rate for ReadReq accesses
system.l2cache.ReadReq_miss_rate::total      0.428814                       # miss rate for ReadReq accesses
system.l2cache.ReadReq_avg_miss_latency::.cpu.inst 13549.550065                       # average ReadReq miss latency
system.l2cache.ReadReq_avg_miss_latency::.cpu.data 40452.348381                       # average ReadReq miss latency
system.l2cache.ReadReq_avg_miss_latency::total 16983.792774                       # average ReadReq miss latency
system.l2cache.ReadReq_mshr_misses::.cpu.inst       104904                       # number of ReadReq MSHR misses
system.l2cache.ReadReq_mshr_misses::.cpu.data        15351                       # number of ReadReq MSHR misses
system.l2cache.ReadReq_mshr_misses::total       120255                       # number of ReadReq MSHR misses
system.l2cache.ReadReq_mshr_miss_latency::.cpu.inst   1211594000                       # number of ReadReq MSHR miss cycles
system.l2cache.ReadReq_mshr_miss_latency::.cpu.data    590282000                       # number of ReadReq MSHR miss cycles
system.l2cache.ReadReq_mshr_miss_latency::total   1801876000                       # number of ReadReq MSHR miss cycles
system.l2cache.ReadReq_mshr_miss_rate::.cpu.inst     0.425752                       # mshr miss rate for ReadReq accesses
system.l2cache.ReadReq_mshr_miss_rate::.cpu.data     0.450983                       # mshr miss rate for ReadReq accesses
system.l2cache.ReadReq_mshr_miss_rate::total     0.428814                       # mshr miss rate for ReadReq accesses
system.l2cache.ReadReq_avg_mshr_miss_latency::.cpu.inst 11549.550065                       # average ReadReq mshr miss latency
system.l2cache.ReadReq_avg_mshr_miss_latency::.cpu.data 38452.348381                       # average ReadReq mshr miss latency
system.l2cache.ReadReq_avg_mshr_miss_latency::total 14983.792774                       # average ReadReq mshr miss latency
system.l2cache.WritebackDirty_hits::.writebacks        19697                       # number of WritebackDirty hits
system.l2cache.WritebackDirty_hits::total        19697                       # number of WritebackDirty hits
system.l2cache.WritebackDirty_accesses::.writebacks        19697                       # number of WritebackDirty accesses(hits+misses)
system.l2cache.WritebackDirty_accesses::total        19697                       # number of WritebackDirty accesses(hits+misses)
system.l2cache.power_state.pwrStateResidencyTicks::UNDEFINED  28159573000                       # Cumulative time (in ticks) in various power states
system.l2cache.tags.tagsinuse              510.489389                       # Cycle average of tags in use
system.l2cache.tags.total_refs                 300133                       # Total number of references to valid blocks.
system.l2cache.tags.sampled_refs               128818                       # Sample count of references to valid blocks.
system.l2cache.tags.avg_refs                 2.329900                       # Average number of references to valid blocks.
system.l2cache.tags.warmup_cycle                78000                       # Cycle when the warmup percentage was hit.
system.l2cache.tags.occ_blocks::.writebacks    95.187962                       # Average occupied blocks per requestor
system.l2cache.tags.occ_blocks::.cpu.inst   207.751000                       # Average occupied blocks per requestor
system.l2cache.tags.occ_blocks::.cpu.data   207.550428                       # Average occupied blocks per requestor
system.l2cache.tags.occ_percent::.writebacks     0.185914                       # Average percentage of cache occupancy
system.l2cache.tags.occ_percent::.cpu.inst     0.405764                       # Average percentage of cache occupancy
system.l2cache.tags.occ_percent::.cpu.data     0.405372                       # Average percentage of cache occupancy
system.l2cache.tags.occ_percent::total       0.997050                       # Average percentage of cache occupancy
system.l2cache.tags.occ_task_id_blocks::1024          512                       # Occupied blocks per task id
system.l2cache.tags.age_task_id_blocks_1024::0           47                       # Occupied blocks per task id
system.l2cache.tags.age_task_id_blocks_1024::1           68                       # Occupied blocks per task id
system.l2cache.tags.age_task_id_blocks_1024::2          249                       # Occupied blocks per task id
system.l2cache.tags.age_task_id_blocks_1024::3          148                       # Occupied blocks per task id
system.l2cache.tags.occ_task_id_percent::1024            1                       # Percentage of cache occupancy per task id
system.l2cache.tags.tag_accesses               428951                       # Number of tag accesses
system.l2cache.tags.data_accesses              428951                       # Number of data accesses
system.l2cache.tags.power_state.pwrStateResidencyTicks::UNDEFINED  28159573000                       # Cumulative time (in ticks) in various power states
system.l2bar.trans_dist::ReadReq               280436                       # Transaction distribution
system.l2bar.trans_dist::ReadResp              280436                       # Transaction distribution
system.l2bar.trans_dist::WritebackDirty         19697                       # Transaction distribution
system.l2bar.pkt_count_system.dcache.mem_side::system.l2cache.cpu_side        87775                       # Packet count per connected master and slave (bytes)
system.l2bar.pkt_count_system.icache.mem_side::system.l2cache.cpu_side       492794                       # Packet count per connected master and slave (bytes)
system.l2bar.pkt_count::total                  580569                       # Packet count per connected master and slave (bytes)
system.l2bar.pkt_size_system.dcache.mem_side::system.l2cache.cpu_side      3439104                       # Cumulative packet size per connected master and slave (bytes)
system.l2bar.pkt_size_system.icache.mem_side::system.l2cache.cpu_side     15769408                       # Cumulative packet size per connected master and slave (bytes)
system.l2bar.pkt_size::total                 19208512                       # Cumulative packet size per connected master and slave (bytes)
system.l2bar.respLayer1.occupancy          1231985000                       # Layer occupancy (ticks)
system.l2bar.respLayer1.utilization               4.4                       # Layer utilization (%)
system.l2bar.reqLayer0.occupancy            378921000                       # Layer occupancy (ticks)
system.l2bar.reqLayer0.utilization                1.3                       # Layer utilization (%)
system.l2bar.respLayer0.occupancy           170195000                       # Layer occupancy (ticks)
system.l2bar.respLayer0.utilization               0.6                       # Layer utilization (%)
system.l2bar.power_state.pwrStateResidencyTicks::UNDEFINED  28159573000                       # Cumulative time (in ticks) in various power states
system.cpu.dtb.walker.power_state.pwrStateResidencyTicks::UNDEFINED  28159573000                       # Cumulative time (in ticks) in various power states
system.cpu.interrupts.clk_domain.clock          16000                       # Clock period in ticks
system.cpu.itb.walker.power_state.pwrStateResidencyTicks::UNDEFINED  28159573000                       # Cumulative time (in ticks) in various power states
system.cpu.power_state.numTransitions               1                       # Number of power state transitions
system.cpu.power_state.pwrStateResidencyTicks::ON  28159573000                       # Cumulative time (in ticks) in various power states

---------- End Simulation Statistics   ----------
