
---------- Begin Simulation Statistics ----------
final_tick                                 1066516000                       # Number of ticks from beginning of simulation (restored from checkpoints and never reset)
host_inst_rate                                 219759                       # Simulator instruction rate (inst/s)
host_mem_usage                                 692264                       # Number of bytes of host memory used
host_op_rate                                   434148                       # Simulator op (including micro ops) rate (op/s)
host_seconds                                     0.13                       # Real time elapsed on the host
host_tick_rate                             8223042705                       # Simulator tick rate (ticks/s)
sim_freq                                 1000000000000                       # Frequency of simulated ticks
sim_insts                                       28463                       # Number of instructions simulated
sim_ops                                         56295                       # Number of ops (including micro ops) simulated
sim_seconds                                  0.001067                       # Number of seconds simulated
sim_ticks                                  1066516000                       # Number of ticks simulated
system.cpu.Branches                              6323                       # Number of branches fetched
system.cpu.committedInsts                       28463                       # Number of instructions committed
system.cpu.committedOps                         56295                       # Number of ops (including micro ops) committed
system.cpu.dtb.rdAccesses                        5990                       # TLB accesses on read requests
system.cpu.dtb.rdMisses                            24                       # TLB misses on read requests
system.cpu.dtb.wrAccesses                        6672                       # TLB accesses on write requests
system.cpu.dtb.wrMisses                            18                       # TLB misses on write requests
system.cpu.idle_fraction                     0.000000                       # Percentage of idle cycles
system.cpu.itb.rdAccesses                           0                       # TLB accesses on read requests
system.cpu.itb.rdMisses                             0                       # TLB misses on read requests
system.cpu.itb.wrAccesses                       38171                       # TLB accesses on write requests
system.cpu.itb.wrMisses                            72                       # TLB misses on write requests
system.cpu.not_idle_fraction                 1.000000                       # Percentage of non-idle cycles
system.cpu.numCycles                          1066516                       # number of cpu cycles simulated
system.cpu.numWorkItemsCompleted                    0                       # number of work items this cpu completed
system.cpu.numWorkItemsStarted                      0                       # number of work items this cpu started
system.cpu.num_busy_cycles               1066515.999000                       # Number of busy cycles
system.cpu.num_cc_register_reads                33289                       # number of times the CC registers were read
system.cpu.num_cc_register_writes               17371                       # number of times the CC registers were written
system.cpu.num_conditional_control_insts         4823                       # number of instructions that are conditional controls
system.cpu.num_fp_alu_accesses                   2696                       # Number of float alu accesses
system.cpu.num_fp_insts                          2696                       # number of float instructions
system.cpu.num_fp_register_reads                 3386                       # number of times the floating registers were read
system.cpu.num_fp_register_writes                 955                       # number of times the floating registers were written
system.cpu.num_func_calls                        1008                       # number of times a function call or return occured
system.cpu.num_idle_cycles                   0.001000                       # Number of idle cycles
system.cpu.num_int_alu_accesses                 55078                       # Number of integer alu accesses
system.cpu.num_int_insts                        55078                       # number of integer instructions
system.cpu.num_int_register_reads              107553                       # number of times the integer registers were read
system.cpu.num_int_register_writes              42231                       # number of times the integer registers were written
system.cpu.num_load_insts                        5985                       # Number of load instructions
system.cpu.num_mem_refs                         12657                       # number of memory refs
system.cpu.num_store_insts                       6672                       # Number of store instructions
system.cpu.num_vec_alu_accesses                     0                       # Number of vector alu accesses
system.cpu.num_vec_insts                            0                       # number of vector instructions
system.cpu.num_vec_register_reads                   0                       # number of times the vector registers were read
system.cpu.num_vec_register_writes                  0                       # number of times the vector registers were written
system.cpu.op_class::No_OpClass                   417      0.74%      0.74% # Class of executed instruction
system.cpu.op_class::IntAlu                     42260     75.06%     75.80% # Class of executed instruction
system.cpu.op_class::IntMult                       29      0.05%     75.85% # Class of executed instruction
system.cpu.op_class::IntDiv                        21      0.04%     75.89% # Class of executed instruction
system.cpu.op_class::FloatAdd                      25      0.04%     75.93% # Class of executed instruction
system.cpu.op_class::FloatCmp                       0      0.00%     75.93% # Class of executed instruction
system.cpu.op_class::FloatCvt                       0      0.00%     75.93% # Class of executed instruction
system.cpu.op_class::FloatMult                      0      0.00%     75.93% # Class of executed instruction
system.cpu.op_class::FloatMultAcc                   0      0.00%     75.93% # Class of executed instruction
system.cpu.op_class::FloatDiv                       0      0.00%     75.93% # Class of executed instruction
system.cpu.op_class::FloatMisc                      0      0.00%     75.93% # Class of executed instruction
system.cpu.op_class::FloatSqrt                      0      0.00%     75.93% # Class of executed instruction
system.cpu.op_class::SimdAdd                        2      0.00%     75.94% # Class of executed instruction
system.cpu.op_class::SimdAddAcc                     0      0.00%     75.94% # Class of executed instruction
system.cpu.op_class::SimdAlu                      274      0.49%     76.42% # Class of executed instruction
system.cpu.op_class::SimdCmp                       12      0.02%     76.45% # Class of executed instruction
system.cpu.op_class::SimdCvt                      216      0.38%     76.83% # Class of executed instruction
system.cpu.op_class::SimdMisc                     388      0.69%     77.52% # Class of executed instruction
system.cpu.op_class::SimdMult                       0      0.00%     77.52% # Class of executed instruction
system.cpu.op_class::SimdMultAcc                    0      0.00%     77.52% # Class of executed instruction
system.cpu.op_class::SimdShift                      0      0.00%     77.52% # Class of executed instruction
system.cpu.op_class::SimdShiftAcc                   0      0.00%     77.52% # Class of executed instruction
system.cpu.op_class::SimdDiv                        0      0.00%     77.52% # Class of executed instruction
system.cpu.op_class::SimdSqrt                       0      0.00%     77.52% # Class of executed instruction
system.cpu.op_class::SimdFloatAdd                   0      0.00%     77.52% # Class of executed instruction
system.cpu.op_class::SimdFloatAlu                   0      0.00%     77.52% # Class of executed instruction
system.cpu.op_class::SimdFloatCmp                   0      0.00%     77.52% # Class of executed instruction
system.cpu.op_class::SimdFloatCvt                   0      0.00%     77.52% # Class of executed instruction
system.cpu.op_class::SimdFloatDiv                   0      0.00%     77.52% # Class of executed instruction
system.cpu.op_class::SimdFloatMisc                  0      0.00%     77.52% # Class of executed instruction
system.cpu.op_class::SimdFloatMult                  0      0.00%     77.52% # Class of executed instruction
system.cpu.op_class::SimdFloatMultAcc               0      0.00%     77.52% # Class of executed instruction
system.cpu.op_class::SimdFloatSqrt                  0      0.00%     77.52% # Class of executed instruction
system.cpu.op_class::SimdReduceAdd                  0      0.00%     77.52% # Class of executed instruction
system.cpu.op_class::SimdReduceAlu                  0      0.00%     77.52% # Class of executed instruction
system.cpu.op_class::SimdReduceCmp                  0      0.00%     77.52% # Class of executed instruction
system.cpu.op_class::SimdFloatReduceAdd             0      0.00%     77.52% # Class of executed instruction
system.cpu.op_class::SimdFloatReduceCmp             0      0.00%     77.52% # Class of executed instruction
system.cpu.op_class::SimdAes                        0      0.00%     77.52% # Class of executed instruction
system.cpu.op_class::SimdAesMix                     0      0.00%     77.52% # Class of executed instruction
system.cpu.op_class::SimdSha1Hash                   0      0.00%     77.52% # Class of executed instruction
system.cpu.op_class::SimdSha1Hash2                  0      0.00%     77.52% # Class of executed instruction
system.cpu.op_class::SimdSha256Hash                 0      0.00%     77.52% # Class of executed instruction
system.cpu.op_class::SimdSha256Hash2                0      0.00%     77.52% # Class of executed instruction
system.cpu.op_class::SimdShaSigma2                  0      0.00%     77.52% # Class of executed instruction
system.cpu.op_class::SimdShaSigma3                  0      0.00%     77.52% # Class of executed instruction
system.cpu.op_class::SimdPredAlu                    0      0.00%     77.52% # Class of executed instruction
system.cpu.op_class::MemRead                     5775     10.26%     87.78% # Class of executed instruction
system.cpu.op_class::MemWrite                    5144      9.14%     96.91% # Class of executed instruction
system.cpu.op_class::FloatMemRead                 210      0.37%     97.29% # Class of executed instruction
system.cpu.op_class::FloatMemWrite               1528      2.71%    100.00% # Class of executed instruction
system.cpu.op_class::IprAccess                      0      0.00%    100.00% # Class of executed instruction
system.cpu.op_class::InstPrefetch                   0      0.00%    100.00% # Class of executed instruction
system.cpu.op_class::total                      56301                       # Class of executed instruction
system.cpu.workload.numSyscalls                    30                       # Number of system calls
system.l2bar.snoop_filter.hit_multi_requests            0                       # Number of requests hitting in the snoop filter with multiple (>1) holders of the requested data.
system.l2bar.snoop_filter.hit_multi_snoops            0                       # Number of snoops hitting in the snoop filter with multiple (>1) holders of the requested data.
system.l2bar.snoop_filter.hit_single_requests          735                       # Number of requests hitting in the snoop filter with a single holder of the requested data.
system.l2bar.snoop_filter.hit_single_snoops          297                       # Number of snoops hitting in the snoop filter with a single holder of the requested data.
system.l2bar.snoop_filter.tot_requests           2260                       # Total number of requests made to the snoop filter.
system.l2bar.snoop_filter.tot_snoops              297                       # Total number of snoops made to the snoop filter.
system.membus.snoop_filter.hit_multi_requests            0                       # Number of requests hitting in the snoop filter with multiple (>1) holders of the requested data.
system.membus.snoop_filter.hit_multi_snoops            0                       # Number of snoops hitting in the snoop filter with multiple (>1) holders of the requested data.
system.membus.snoop_filter.hit_single_requests           64                       # Number of requests hitting in the snoop filter with a single holder of the requested data.
system.membus.snoop_filter.hit_single_snoops            0                       # Number of snoops hitting in the snoop filter with a single holder of the requested data.
system.membus.snoop_filter.tot_requests          1383                       # Total number of requests made to the snoop filter.
system.membus.snoop_filter.tot_snoops               0                       # Total number of snoops made to the snoop filter.
system.membus.trans_dist::ReadResp                982                       # Transaction distribution
system.membus.trans_dist::CleanEvict               64                       # Transaction distribution
system.membus.trans_dist::ReadExReq               337                       # Transaction distribution
system.membus.trans_dist::ReadExResp              337                       # Transaction distribution
system.membus.trans_dist::ReadSharedReq           982                       # Transaction distribution
system.membus.pkt_count_system.DynamicCache.mem_side::system.mem_delay-slave         2702                       # Packet count per connected master and slave (bytes)
system.membus.pkt_count_system.DynamicCache.mem_side::total         2702                       # Packet count per connected master and slave (bytes)
system.membus.pkt_count::total                   2702                       # Packet count per connected master and slave (bytes)
system.membus.pkt_size_system.DynamicCache.mem_side::system.mem_delay-slave        84416                       # Cumulative packet size per connected master and slave (bytes)
system.membus.pkt_size_system.DynamicCache.mem_side::total        84416                       # Cumulative packet size per connected master and slave (bytes)
system.membus.pkt_size::total                   84416                       # Cumulative packet size per connected master and slave (bytes)
system.membus.snoops                                0                       # Total snoops (count)
system.membus.snoopTraffic                          0                       # Total snoop traffic (bytes)
system.membus.snoop_fanout::samples              1319                       # Request fanout histogram
system.membus.snoop_fanout::mean                    0                       # Request fanout histogram
system.membus.snoop_fanout::stdev                   0                       # Request fanout histogram
system.membus.snoop_fanout::underflows              0      0.00%      0.00% # Request fanout histogram
system.membus.snoop_fanout::0                    1319    100.00%    100.00% # Request fanout histogram
system.membus.snoop_fanout::1                       0      0.00%    100.00% # Request fanout histogram
system.membus.snoop_fanout::overflows               0      0.00%    100.00% # Request fanout histogram
system.membus.snoop_fanout::min_value               0                       # Request fanout histogram
system.membus.snoop_fanout::max_value               0                       # Request fanout histogram
system.membus.snoop_fanout::total                1319                       # Request fanout histogram
system.membus.reqLayer0.occupancy             1383000                       # Layer occupancy (ticks)
system.membus.reqLayer0.utilization               0.1                       # Layer utilization (%)
system.membus.respLayer0.occupancy            7060750                       # Layer occupancy (ticks)
system.membus.respLayer0.utilization              0.7                       # Layer utilization (%)
system.membus.power_state.pwrStateResidencyTicks::UNDEFINED   1066516000                       # Cumulative time (in ticks) in various power states
system.icache.demand_hits::.cpu.inst            37213                       # number of demand (read+write) hits
system.icache.demand_hits::total                37213                       # number of demand (read+write) hits
system.icache.overall_hits::.cpu.inst           37213                       # number of overall hits
system.icache.overall_hits::total               37213                       # number of overall hits
system.icache.demand_misses::.cpu.inst            958                       # number of demand (read+write) misses
system.icache.demand_misses::total                958                       # number of demand (read+write) misses
system.icache.overall_misses::.cpu.inst           958                       # number of overall misses
system.icache.overall_misses::total               958                       # number of overall misses
system.icache.demand_miss_latency::.cpu.inst    611243000                       # number of demand (read+write) miss cycles
system.icache.demand_miss_latency::total    611243000                       # number of demand (read+write) miss cycles
system.icache.overall_miss_latency::.cpu.inst    611243000                       # number of overall miss cycles
system.icache.overall_miss_latency::total    611243000                       # number of overall miss cycles
system.icache.demand_accesses::.cpu.inst        38171                       # number of demand (read+write) accesses
system.icache.demand_accesses::total            38171                       # number of demand (read+write) accesses
system.icache.overall_accesses::.cpu.inst        38171                       # number of overall (read+write) accesses
system.icache.overall_accesses::total           38171                       # number of overall (read+write) accesses
system.icache.demand_miss_rate::.cpu.inst     0.025098                       # miss rate for demand accesses
system.icache.demand_miss_rate::total        0.025098                       # miss rate for demand accesses
system.icache.overall_miss_rate::.cpu.inst     0.025098                       # miss rate for overall accesses
system.icache.overall_miss_rate::total       0.025098                       # miss rate for overall accesses
system.icache.demand_avg_miss_latency::.cpu.inst 638040.709812                       # average overall miss latency
system.icache.demand_avg_miss_latency::total 638040.709812                       # average overall miss latency
system.icache.overall_avg_miss_latency::.cpu.inst 638040.709812                       # average overall miss latency
system.icache.overall_avg_miss_latency::total 638040.709812                       # average overall miss latency
system.icache.blocked_cycles::no_mshrs              0                       # number of cycles access was blocked
system.icache.blocked_cycles::no_targets            0                       # number of cycles access was blocked
system.icache.blocked::no_mshrs                     0                       # number of cycles access was blocked
system.icache.blocked::no_targets                   0                       # number of cycles access was blocked
system.icache.avg_blocked_cycles::no_mshrs          nan                       # average number of cycles each access was blocked
system.icache.avg_blocked_cycles::no_targets          nan                       # average number of cycles each access was blocked
system.icache.demand_mshr_misses::.cpu.inst          958                       # number of demand (read+write) MSHR misses
system.icache.demand_mshr_misses::total           958                       # number of demand (read+write) MSHR misses
system.icache.overall_mshr_misses::.cpu.inst          958                       # number of overall MSHR misses
system.icache.overall_mshr_misses::total          958                       # number of overall MSHR misses
system.icache.demand_mshr_miss_latency::.cpu.inst    609327000                       # number of demand (read+write) MSHR miss cycles
system.icache.demand_mshr_miss_latency::total    609327000                       # number of demand (read+write) MSHR miss cycles
system.icache.overall_mshr_miss_latency::.cpu.inst    609327000                       # number of overall MSHR miss cycles
system.icache.overall_mshr_miss_latency::total    609327000                       # number of overall MSHR miss cycles
system.icache.demand_mshr_miss_rate::.cpu.inst     0.025098                       # mshr miss rate for demand accesses
system.icache.demand_mshr_miss_rate::total     0.025098                       # mshr miss rate for demand accesses
system.icache.overall_mshr_miss_rate::.cpu.inst     0.025098                       # mshr miss rate for overall accesses
system.icache.overall_mshr_miss_rate::total     0.025098                       # mshr miss rate for overall accesses
system.icache.demand_avg_mshr_miss_latency::.cpu.inst 636040.709812                       # average overall mshr miss latency
system.icache.demand_avg_mshr_miss_latency::total 636040.709812                       # average overall mshr miss latency
system.icache.overall_avg_mshr_miss_latency::.cpu.inst 636040.709812                       # average overall mshr miss latency
system.icache.overall_avg_mshr_miss_latency::total 636040.709812                       # average overall mshr miss latency
system.icache.replacements                        526                       # number of replacements
system.icache.ReadReq_hits::.cpu.inst           37213                       # number of ReadReq hits
system.icache.ReadReq_hits::total               37213                       # number of ReadReq hits
system.icache.ReadReq_misses::.cpu.inst           958                       # number of ReadReq misses
system.icache.ReadReq_misses::total               958                       # number of ReadReq misses
system.icache.ReadReq_miss_latency::.cpu.inst    611243000                       # number of ReadReq miss cycles
system.icache.ReadReq_miss_latency::total    611243000                       # number of ReadReq miss cycles
system.icache.ReadReq_accesses::.cpu.inst        38171                       # number of ReadReq accesses(hits+misses)
system.icache.ReadReq_accesses::total           38171                       # number of ReadReq accesses(hits+misses)
system.icache.ReadReq_miss_rate::.cpu.inst     0.025098                       # miss rate for ReadReq accesses
system.icache.ReadReq_miss_rate::total       0.025098                       # miss rate for ReadReq accesses
system.icache.ReadReq_avg_miss_latency::.cpu.inst 638040.709812                       # average ReadReq miss latency
system.icache.ReadReq_avg_miss_latency::total 638040.709812                       # average ReadReq miss latency
system.icache.ReadReq_mshr_misses::.cpu.inst          958                       # number of ReadReq MSHR misses
system.icache.ReadReq_mshr_misses::total          958                       # number of ReadReq MSHR misses
system.icache.ReadReq_mshr_miss_latency::.cpu.inst    609327000                       # number of ReadReq MSHR miss cycles
system.icache.ReadReq_mshr_miss_latency::total    609327000                       # number of ReadReq MSHR miss cycles
system.icache.ReadReq_mshr_miss_rate::.cpu.inst     0.025098                       # mshr miss rate for ReadReq accesses
system.icache.ReadReq_mshr_miss_rate::total     0.025098                       # mshr miss rate for ReadReq accesses
system.icache.ReadReq_avg_mshr_miss_latency::.cpu.inst 636040.709812                       # average ReadReq mshr miss latency
system.icache.ReadReq_avg_mshr_miss_latency::total 636040.709812                       # average ReadReq mshr miss latency
system.icache.power_state.pwrStateResidencyTicks::UNDEFINED   1066516000                       # Cumulative time (in ticks) in various power states
system.icache.tags.tagsinuse               264.712206                       # Cycle average of tags in use
system.icache.tags.total_refs                   38171                       # Total number of references to valid blocks.
system.icache.tags.sampled_refs                   958                       # Sample count of references to valid blocks.
system.icache.tags.avg_refs                 39.844468                       # Average number of references to valid blocks.
system.icache.tags.warmup_cycle                729000                       # Cycle when the warmup percentage was hit.
system.icache.tags.occ_blocks::.cpu.inst   264.712206                       # Average occupied blocks per requestor
system.icache.tags.occ_percent::.cpu.inst     0.517016                       # Average percentage of cache occupancy
system.icache.tags.occ_percent::total        0.517016                       # Average percentage of cache occupancy
system.icache.tags.occ_task_id_blocks::1024          432                       # Occupied blocks per task id
system.icache.tags.age_task_id_blocks_1024::0            9                       # Occupied blocks per task id
system.icache.tags.age_task_id_blocks_1024::1           90                       # Occupied blocks per task id
system.icache.tags.age_task_id_blocks_1024::2          320                       # Occupied blocks per task id
system.icache.tags.age_task_id_blocks_1024::3           13                       # Occupied blocks per task id
system.icache.tags.occ_task_id_percent::1024     0.843750                       # Percentage of cache occupancy per task id
system.icache.tags.tag_accesses                 39129                       # Number of tag accesses
system.icache.tags.data_accesses                39129                       # Number of data accesses
system.icache.tags.power_state.pwrStateResidencyTicks::UNDEFINED   1066516000                       # Cumulative time (in ticks) in various power states
system.mem_delay.power_state.pwrStateResidencyTicks::UNDEFINED   1066516000                       # Cumulative time (in ticks) in various power states
system.mem_ctrl.bytes_read::.cpu.inst           53376                       # Number of bytes read from this memory
system.mem_ctrl.bytes_read::.cpu.data           31040                       # Number of bytes read from this memory
system.mem_ctrl.bytes_read::total               84416                       # Number of bytes read from this memory
system.mem_ctrl.bytes_inst_read::.cpu.inst        53376                       # Number of instructions bytes read from this memory
system.mem_ctrl.bytes_inst_read::total          53376                       # Number of instructions bytes read from this memory
system.mem_ctrl.num_reads::.cpu.inst              834                       # Number of read requests responded to by this memory
system.mem_ctrl.num_reads::.cpu.data              485                       # Number of read requests responded to by this memory
system.mem_ctrl.num_reads::total                 1319                       # Number of read requests responded to by this memory
system.mem_ctrl.bw_read::.cpu.inst           50047069                       # Total read bandwidth from this memory (bytes/s)
system.mem_ctrl.bw_read::.cpu.data           29104111                       # Total read bandwidth from this memory (bytes/s)
system.mem_ctrl.bw_read::total               79151180                       # Total read bandwidth from this memory (bytes/s)
system.mem_ctrl.bw_inst_read::.cpu.inst      50047069                       # Instruction read bandwidth from this memory (bytes/s)
system.mem_ctrl.bw_inst_read::total          50047069                       # Instruction read bandwidth from this memory (bytes/s)
system.mem_ctrl.bw_total::.cpu.inst          50047069                       # Total bandwidth to/from this memory (bytes/s)
system.mem_ctrl.bw_total::.cpu.data          29104111                       # Total bandwidth to/from this memory (bytes/s)
system.mem_ctrl.bw_total::total              79151180                       # Total bandwidth to/from this memory (bytes/s)
system.mem_ctrl.avgPriority_.cpu.inst::samples       834.00                       # Average QoS priority value for accepted requests
system.mem_ctrl.avgPriority_.cpu.data::samples       485.00                       # Average QoS priority value for accepted requests
system.mem_ctrl.priorityMinLatency       0.000000018750                       # per QoS priority minimum request to response latency (s)
system.mem_ctrl.priorityMaxLatency       0.000000573000                       # per QoS priority maximum request to response latency (s)
system.mem_ctrl.numReadWriteTurnArounds             0                       # Number of turnarounds from READ to WRITE
system.mem_ctrl.numWriteReadTurnArounds             0                       # Number of turnarounds from WRITE to READ
system.mem_ctrl.numStayReadState                 2910                       # Number of times bus staying in READ state
system.mem_ctrl.numStayWriteState                   0                       # Number of times bus staying in WRITE state
system.mem_ctrl.readReqs                         1319                       # Number of read requests accepted
system.mem_ctrl.writeReqs                           0                       # Number of write requests accepted
system.mem_ctrl.readBursts                       1319                       # Number of DRAM read bursts, including those serviced by the write queue
system.mem_ctrl.writeBursts                         0                       # Number of DRAM write bursts, including those merged in the write queue
system.mem_ctrl.servicedByWrQ                       0                       # Number of DRAM read bursts serviced by the write queue
system.mem_ctrl.mergedWrBursts                      0                       # Number of DRAM write bursts merged with an existing one
system.mem_ctrl.neitherReadNorWriteReqs             0                       # Number of requests that are neither read nor write
system.mem_ctrl.perBankRdBursts::0                 72                       # Per bank write bursts
system.mem_ctrl.perBankRdBursts::1                 91                       # Per bank write bursts
system.mem_ctrl.perBankRdBursts::2                100                       # Per bank write bursts
system.mem_ctrl.perBankRdBursts::3                 48                       # Per bank write bursts
system.mem_ctrl.perBankRdBursts::4                156                       # Per bank write bursts
system.mem_ctrl.perBankRdBursts::5                200                       # Per bank write bursts
system.mem_ctrl.perBankRdBursts::6                108                       # Per bank write bursts
system.mem_ctrl.perBankRdBursts::7                 77                       # Per bank write bursts
system.mem_ctrl.perBankRdBursts::8                 85                       # Per bank write bursts
system.mem_ctrl.perBankRdBursts::9                 58                       # Per bank write bursts
system.mem_ctrl.perBankRdBursts::10                12                       # Per bank write bursts
system.mem_ctrl.perBankRdBursts::11                28                       # Per bank write bursts
system.mem_ctrl.perBankRdBursts::12                14                       # Per bank write bursts
system.mem_ctrl.perBankRdBursts::13                36                       # Per bank write bursts
system.mem_ctrl.perBankRdBursts::14               136                       # Per bank write bursts
system.mem_ctrl.perBankRdBursts::15                98                       # Per bank write bursts
system.mem_ctrl.perBankWrBursts::0                  0                       # Per bank write bursts
system.mem_ctrl.perBankWrBursts::1                  0                       # Per bank write bursts
system.mem_ctrl.perBankWrBursts::2                  0                       # Per bank write bursts
system.mem_ctrl.perBankWrBursts::3                  0                       # Per bank write bursts
system.mem_ctrl.perBankWrBursts::4                  0                       # Per bank write bursts
system.mem_ctrl.perBankWrBursts::5                  0                       # Per bank write bursts
system.mem_ctrl.perBankWrBursts::6                  0                       # Per bank write bursts
system.mem_ctrl.perBankWrBursts::7                  0                       # Per bank write bursts
system.mem_ctrl.perBankWrBursts::8                  0                       # Per bank write bursts
system.mem_ctrl.perBankWrBursts::9                  0                       # Per bank write bursts
system.mem_ctrl.perBankWrBursts::10                 0                       # Per bank write bursts
system.mem_ctrl.perBankWrBursts::11                 0                       # Per bank write bursts
system.mem_ctrl.perBankWrBursts::12                 0                       # Per bank write bursts
system.mem_ctrl.perBankWrBursts::13                 0                       # Per bank write bursts
system.mem_ctrl.perBankWrBursts::14                 0                       # Per bank write bursts
system.mem_ctrl.perBankWrBursts::15                 0                       # Per bank write bursts
system.mem_ctrl.avgRdQLen                        1.00                       # Average read queue length when enqueuing
system.mem_ctrl.avgWrQLen                        0.00                       # Average write queue length when enqueuing
system.mem_ctrl.totQLat                      16709500                       # Total ticks spent queuing
system.mem_ctrl.totBusLat                     6595000                       # Total ticks spent in databus transfers
system.mem_ctrl.totMemAccLat                 41440750                       # Total ticks spent from burst creation until serviced by the DRAM
system.mem_ctrl.avgQLat                      12668.31                       # Average queueing delay per DRAM burst
system.mem_ctrl.avgBusLat                     5000.00                       # Average bus latency per DRAM burst
system.mem_ctrl.avgMemAccLat                 31418.31                       # Average memory access latency per DRAM burst
system.mem_ctrl.numRdRetry                          0                       # Number of times read queue was full causing retry
system.mem_ctrl.numWrRetry                          0                       # Number of times write queue was full causing retry
system.mem_ctrl.readRowHits                       800                       # Number of row buffer hits during reads
system.mem_ctrl.writeRowHits                        0                       # Number of row buffer hits during writes
system.mem_ctrl.readRowHitRate                  60.65                       # Row buffer hit rate for reads
system.mem_ctrl.writeRowHitRate                   nan                       # Row buffer hit rate for writes
system.mem_ctrl.readPktSize::0                      0                       # Read request sizes (log2)
system.mem_ctrl.readPktSize::1                      0                       # Read request sizes (log2)
system.mem_ctrl.readPktSize::2                      0                       # Read request sizes (log2)
system.mem_ctrl.readPktSize::3                      0                       # Read request sizes (log2)
system.mem_ctrl.readPktSize::4                      0                       # Read request sizes (log2)
system.mem_ctrl.readPktSize::5                      0                       # Read request sizes (log2)
system.mem_ctrl.readPktSize::6                   1319                       # Read request sizes (log2)
system.mem_ctrl.writePktSize::0                     0                       # Write request sizes (log2)
system.mem_ctrl.writePktSize::1                     0                       # Write request sizes (log2)
system.mem_ctrl.writePktSize::2                     0                       # Write request sizes (log2)
system.mem_ctrl.writePktSize::3                     0                       # Write request sizes (log2)
system.mem_ctrl.writePktSize::4                     0                       # Write request sizes (log2)
system.mem_ctrl.writePktSize::5                     0                       # Write request sizes (log2)
system.mem_ctrl.writePktSize::6                     0                       # Write request sizes (log2)
system.mem_ctrl.rdQLenPdf::0                     1318                       # What read queue length does an incoming req see
system.mem_ctrl.rdQLenPdf::1                        1                       # What read queue length does an incoming req see
system.mem_ctrl.rdQLenPdf::2                        0                       # What read queue length does an incoming req see
system.mem_ctrl.rdQLenPdf::3                        0                       # What read queue length does an incoming req see
system.mem_ctrl.rdQLenPdf::4                        0                       # What read queue length does an incoming req see
system.mem_ctrl.rdQLenPdf::5                        0                       # What read queue length does an incoming req see
system.mem_ctrl.rdQLenPdf::6                        0                       # What read queue length does an incoming req see
system.mem_ctrl.rdQLenPdf::7                        0                       # What read queue length does an incoming req see
system.mem_ctrl.rdQLenPdf::8                        0                       # What read queue length does an incoming req see
system.mem_ctrl.rdQLenPdf::9                        0                       # What read queue length does an incoming req see
system.mem_ctrl.rdQLenPdf::10                       0                       # What read queue length does an incoming req see
system.mem_ctrl.rdQLenPdf::11                       0                       # What read queue length does an incoming req see
system.mem_ctrl.rdQLenPdf::12                       0                       # What read queue length does an incoming req see
system.mem_ctrl.rdQLenPdf::13                       0                       # What read queue length does an incoming req see
system.mem_ctrl.rdQLenPdf::14                       0                       # What read queue length does an incoming req see
system.mem_ctrl.rdQLenPdf::15                       0                       # What read queue length does an incoming req see
system.mem_ctrl.rdQLenPdf::16                       0                       # What read queue length does an incoming req see
system.mem_ctrl.rdQLenPdf::17                       0                       # What read queue length does an incoming req see
system.mem_ctrl.rdQLenPdf::18                       0                       # What read queue length does an incoming req see
system.mem_ctrl.rdQLenPdf::19                       0                       # What read queue length does an incoming req see
system.mem_ctrl.rdQLenPdf::20                       0                       # What read queue length does an incoming req see
system.mem_ctrl.rdQLenPdf::21                       0                       # What read queue length does an incoming req see
system.mem_ctrl.rdQLenPdf::22                       0                       # What read queue length does an incoming req see
system.mem_ctrl.rdQLenPdf::23                       0                       # What read queue length does an incoming req see
system.mem_ctrl.rdQLenPdf::24                       0                       # What read queue length does an incoming req see
system.mem_ctrl.rdQLenPdf::25                       0                       # What read queue length does an incoming req see
system.mem_ctrl.rdQLenPdf::26                       0                       # What read queue length does an incoming req see
system.mem_ctrl.rdQLenPdf::27                       0                       # What read queue length does an incoming req see
system.mem_ctrl.rdQLenPdf::28                       0                       # What read queue length does an incoming req see
system.mem_ctrl.rdQLenPdf::29                       0                       # What read queue length does an incoming req see
system.mem_ctrl.rdQLenPdf::30                       0                       # What read queue length does an incoming req see
system.mem_ctrl.rdQLenPdf::31                       0                       # What read queue length does an incoming req see
system.mem_ctrl.wrQLenPdf::0                        0                       # What write queue length does an incoming req see
system.mem_ctrl.wrQLenPdf::1                        0                       # What write queue length does an incoming req see
system.mem_ctrl.wrQLenPdf::2                        0                       # What write queue length does an incoming req see
system.mem_ctrl.wrQLenPdf::3                        0                       # What write queue length does an incoming req see
system.mem_ctrl.wrQLenPdf::4                        0                       # What write queue length does an incoming req see
system.mem_ctrl.wrQLenPdf::5                        0                       # What write queue length does an incoming req see
system.mem_ctrl.wrQLenPdf::6                        0                       # What write queue length does an incoming req see
system.mem_ctrl.wrQLenPdf::7                        0                       # What write queue length does an incoming req see
system.mem_ctrl.wrQLenPdf::8                        0                       # What write queue length does an incoming req see
system.mem_ctrl.wrQLenPdf::9                        0                       # What write queue length does an incoming req see
system.mem_ctrl.wrQLenPdf::10                       0                       # What write queue length does an incoming req see
system.mem_ctrl.wrQLenPdf::11                       0                       # What write queue length does an incoming req see
system.mem_ctrl.wrQLenPdf::12                       0                       # What write queue length does an incoming req see
system.mem_ctrl.wrQLenPdf::13                       0                       # What write queue length does an incoming req see
system.mem_ctrl.wrQLenPdf::14                       0                       # What write queue length does an incoming req see
system.mem_ctrl.wrQLenPdf::15                       0                       # What write queue length does an incoming req see
system.mem_ctrl.wrQLenPdf::16                       0                       # What write queue length does an incoming req see
system.mem_ctrl.wrQLenPdf::17                       0                       # What write queue length does an incoming req see
system.mem_ctrl.wrQLenPdf::18                       0                       # What write queue length does an incoming req see
system.mem_ctrl.wrQLenPdf::19                       0                       # What write queue length does an incoming req see
system.mem_ctrl.wrQLenPdf::20                       0                       # What write queue length does an incoming req see
system.mem_ctrl.wrQLenPdf::21                       0                       # What write queue length does an incoming req see
system.mem_ctrl.wrQLenPdf::22                       0                       # What write queue length does an incoming req see
system.mem_ctrl.wrQLenPdf::23                       0                       # What write queue length does an incoming req see
system.mem_ctrl.wrQLenPdf::24                       0                       # What write queue length does an incoming req see
system.mem_ctrl.wrQLenPdf::25                       0                       # What write queue length does an incoming req see
system.mem_ctrl.wrQLenPdf::26                       0                       # What write queue length does an incoming req see
system.mem_ctrl.wrQLenPdf::27                       0                       # What write queue length does an incoming req see
system.mem_ctrl.wrQLenPdf::28                       0                       # What write queue length does an incoming req see
system.mem_ctrl.wrQLenPdf::29                       0                       # What write queue length does an incoming req see
system.mem_ctrl.wrQLenPdf::30                       0                       # What write queue length does an incoming req see
system.mem_ctrl.wrQLenPdf::31                       0                       # What write queue length does an incoming req see
system.mem_ctrl.wrQLenPdf::32                       0                       # What write queue length does an incoming req see
system.mem_ctrl.wrQLenPdf::33                       0                       # What write queue length does an incoming req see
system.mem_ctrl.wrQLenPdf::34                       0                       # What write queue length does an incoming req see
system.mem_ctrl.wrQLenPdf::35                       0                       # What write queue length does an incoming req see
system.mem_ctrl.wrQLenPdf::36                       0                       # What write queue length does an incoming req see
system.mem_ctrl.wrQLenPdf::37                       0                       # What write queue length does an incoming req see
system.mem_ctrl.wrQLenPdf::38                       0                       # What write queue length does an incoming req see
system.mem_ctrl.wrQLenPdf::39                       0                       # What write queue length does an incoming req see
system.mem_ctrl.wrQLenPdf::40                       0                       # What write queue length does an incoming req see
system.mem_ctrl.wrQLenPdf::41                       0                       # What write queue length does an incoming req see
system.mem_ctrl.wrQLenPdf::42                       0                       # What write queue length does an incoming req see
system.mem_ctrl.wrQLenPdf::43                       0                       # What write queue length does an incoming req see
system.mem_ctrl.wrQLenPdf::44                       0                       # What write queue length does an incoming req see
system.mem_ctrl.wrQLenPdf::45                       0                       # What write queue length does an incoming req see
system.mem_ctrl.wrQLenPdf::46                       0                       # What write queue length does an incoming req see
system.mem_ctrl.wrQLenPdf::47                       0                       # What write queue length does an incoming req see
system.mem_ctrl.wrQLenPdf::48                       0                       # What write queue length does an incoming req see
system.mem_ctrl.wrQLenPdf::49                       0                       # What write queue length does an incoming req see
system.mem_ctrl.wrQLenPdf::50                       0                       # What write queue length does an incoming req see
system.mem_ctrl.wrQLenPdf::51                       0                       # What write queue length does an incoming req see
system.mem_ctrl.wrQLenPdf::52                       0                       # What write queue length does an incoming req see
system.mem_ctrl.wrQLenPdf::53                       0                       # What write queue length does an incoming req see
system.mem_ctrl.wrQLenPdf::54                       0                       # What write queue length does an incoming req see
system.mem_ctrl.wrQLenPdf::55                       0                       # What write queue length does an incoming req see
system.mem_ctrl.wrQLenPdf::56                       0                       # What write queue length does an incoming req see
system.mem_ctrl.wrQLenPdf::57                       0                       # What write queue length does an incoming req see
system.mem_ctrl.wrQLenPdf::58                       0                       # What write queue length does an incoming req see
system.mem_ctrl.wrQLenPdf::59                       0                       # What write queue length does an incoming req see
system.mem_ctrl.wrQLenPdf::60                       0                       # What write queue length does an incoming req see
system.mem_ctrl.wrQLenPdf::61                       0                       # What write queue length does an incoming req see
system.mem_ctrl.wrQLenPdf::62                       0                       # What write queue length does an incoming req see
system.mem_ctrl.wrQLenPdf::63                       0                       # What write queue length does an incoming req see
system.mem_ctrl.bytesPerActivate::samples          516                       # Bytes accessed per row activation
system.mem_ctrl.bytesPerActivate::mean     162.356589                       # Bytes accessed per row activation
system.mem_ctrl.bytesPerActivate::gmean    124.099023                       # Bytes accessed per row activation
system.mem_ctrl.bytesPerActivate::stdev    139.257939                       # Bytes accessed per row activation
system.mem_ctrl.bytesPerActivate::64-127          221     42.83%     42.83% # Bytes accessed per row activation
system.mem_ctrl.bytesPerActivate::128-191          125     24.22%     67.05% # Bytes accessed per row activation
system.mem_ctrl.bytesPerActivate::192-255           69     13.37%     80.43% # Bytes accessed per row activation
system.mem_ctrl.bytesPerActivate::256-319           29      5.62%     86.05% # Bytes accessed per row activation
system.mem_ctrl.bytesPerActivate::320-383           21      4.07%     90.12% # Bytes accessed per row activation
system.mem_ctrl.bytesPerActivate::384-447           14      2.71%     92.83% # Bytes accessed per row activation
system.mem_ctrl.bytesPerActivate::448-511            8      1.55%     94.38% # Bytes accessed per row activation
system.mem_ctrl.bytesPerActivate::512-575            6      1.16%     95.54% # Bytes accessed per row activation
system.mem_ctrl.bytesPerActivate::576-639            8      1.55%     97.09% # Bytes accessed per row activation
system.mem_ctrl.bytesPerActivate::640-703           15      2.91%    100.00% # Bytes accessed per row activation
system.mem_ctrl.bytesPerActivate::total           516                       # Bytes accessed per row activation
system.mem_ctrl.bytesReadDRAM                   84416                       # Total number of bytes read from DRAM
system.mem_ctrl.bytesReadWrQ                        0                       # Total number of bytes read from write queue
system.mem_ctrl.bytesWritten                        0                       # Total number of bytes written to DRAM
system.mem_ctrl.bytesReadSys                    84416                       # Total read bytes from the system interface side
system.mem_ctrl.bytesWrittenSys                     0                       # Total written bytes from the system interface side
system.mem_ctrl.avgRdBW                         79.15                       # Average DRAM read bandwidth in MiByte/s
system.mem_ctrl.avgWrBW                          0.00                       # Average achieved write bandwidth in MiByte/s
system.mem_ctrl.avgRdBWSys                      79.15                       # Average system read bandwidth in MiByte/s
system.mem_ctrl.avgWrBWSys                       0.00                       # Average system write bandwidth in MiByte/s
system.mem_ctrl.peakBW                       12800.00                       # Theoretical peak bandwidth in MiByte/s
system.mem_ctrl.busUtil                          0.62                       # Data bus utilization in percentage
system.mem_ctrl.busUtilRead                      0.62                       # Data bus utilization in percentage for reads
system.mem_ctrl.busUtilWrite                     0.00                       # Data bus utilization in percentage for writes
system.mem_ctrl.totGap                     1065769000                       # Total gap between requests
system.mem_ctrl.avgGap                      808012.89                       # Average gap between requests
system.mem_ctrl.masterReadBytes::.cpu.inst        53376                       # Per-master bytes read from memory
system.mem_ctrl.masterReadBytes::.cpu.data        31040                       # Per-master bytes read from memory
system.mem_ctrl.masterReadRate::.cpu.inst 50047069.148517228663                       # Per-master bytes read from memory rate (Bytes/sec)
system.mem_ctrl.masterReadRate::.cpu.data 29104110.955672487617                       # Per-master bytes read from memory rate (Bytes/sec)
system.mem_ctrl.masterReadAccesses::.cpu.inst          834                       # Per-master read serviced memory accesses
system.mem_ctrl.masterReadAccesses::.cpu.data          485                       # Per-master read serviced memory accesses
system.mem_ctrl.masterReadTotalLat::.cpu.inst     25158250                       # Per-master read total memory access latency
system.mem_ctrl.masterReadTotalLat::.cpu.data     16282500                       # Per-master read total memory access latency
system.mem_ctrl.masterReadAvgLat::.cpu.inst     30165.77                       # Per-master read average memory access latency
system.mem_ctrl.masterReadAvgLat::.cpu.data     33572.16                       # Per-master read average memory access latency
system.mem_ctrl.pageHitRate                     60.65                       # Row buffer hit rate, read and write combined
system.mem_ctrl.rank1.actEnergy               1335180                       # Energy for activate commands per rank (pJ)
system.mem_ctrl.rank1.preEnergy                702075                       # Energy for precharge commands per rank (pJ)
system.mem_ctrl.rank1.readEnergy              3334380                       # Energy for read commands per rank (pJ)
system.mem_ctrl.rank1.writeEnergy                   0                       # Energy for write commands per rank (pJ)
system.mem_ctrl.rank1.refreshEnergy      83591040.000000                       # Energy for refresh commands per rank (pJ)
system.mem_ctrl.rank1.actBackEnergy         270482670                       # Energy for active background per rank (pJ)
system.mem_ctrl.rank1.preBackEnergy         181767360                       # Energy for precharge background per rank (pJ)
system.mem_ctrl.rank1.actPowerDownEnergy            0                       # Energy for active power-down per rank (pJ)
system.mem_ctrl.rank1.prePowerDownEnergy            0                       # Energy for precharge power-down per rank (pJ)
system.mem_ctrl.rank1.selfRefreshEnergy             0                       # Energy for self refresh per rank (pJ)
system.mem_ctrl.rank1.totalEnergy           541212705                       # Total energy per rank (pJ)
system.mem_ctrl.rank1.averagePower         507.458589                       # Core power per rank (mW)
system.mem_ctrl.rank1.totalIdleTime                 0                       # Total Idle time Per DRAM Rank
system.mem_ctrl.rank1.memoryStateTime::IDLE    470065250                       # Time in different power states
system.mem_ctrl.rank1.memoryStateTime::REF     35360000                       # Time in different power states
system.mem_ctrl.rank1.memoryStateTime::SREF            0                       # Time in different power states
system.mem_ctrl.rank1.memoryStateTime::PRE_PDN            0                       # Time in different power states
system.mem_ctrl.rank1.memoryStateTime::ACT    561090750                       # Time in different power states
system.mem_ctrl.rank1.memoryStateTime::ACT_PDN            0                       # Time in different power states
system.mem_ctrl.rank0.actEnergy               2370480                       # Energy for activate commands per rank (pJ)
system.mem_ctrl.rank0.preEnergy               1256145                       # Energy for precharge commands per rank (pJ)
system.mem_ctrl.rank0.readEnergy              6083280                       # Energy for read commands per rank (pJ)
system.mem_ctrl.rank0.writeEnergy                   0                       # Energy for write commands per rank (pJ)
system.mem_ctrl.rank0.refreshEnergy      83591040.000000                       # Energy for refresh commands per rank (pJ)
system.mem_ctrl.rank0.actBackEnergy         418495140                       # Energy for active background per rank (pJ)
system.mem_ctrl.rank0.preBackEnergy          57125280                       # Energy for precharge background per rank (pJ)
system.mem_ctrl.rank0.actPowerDownEnergy            0                       # Energy for active power-down per rank (pJ)
system.mem_ctrl.rank0.prePowerDownEnergy            0                       # Energy for precharge power-down per rank (pJ)
system.mem_ctrl.rank0.selfRefreshEnergy             0                       # Energy for self refresh per rank (pJ)
system.mem_ctrl.rank0.totalEnergy           568921365                       # Total energy per rank (pJ)
system.mem_ctrl.rank0.averagePower         533.439128                       # Core power per rank (mW)
system.mem_ctrl.rank0.totalIdleTime                 0                       # Total Idle time Per DRAM Rank
system.mem_ctrl.rank0.memoryStateTime::IDLE    144790750                       # Time in different power states
system.mem_ctrl.rank0.memoryStateTime::REF     35360000                       # Time in different power states
system.mem_ctrl.rank0.memoryStateTime::SREF            0                       # Time in different power states
system.mem_ctrl.rank0.memoryStateTime::PRE_PDN            0                       # Time in different power states
system.mem_ctrl.rank0.memoryStateTime::ACT    886365250                       # Time in different power states
system.mem_ctrl.rank0.memoryStateTime::ACT_PDN            0                       # Time in different power states
system.mem_ctrl.power_state.pwrStateResidencyTicks::UNDEFINED   1066516000                       # Cumulative time (in ticks) in various power states
system.l2cache.demand_hits::.cpu.inst             118                       # number of demand (read+write) hits
system.l2cache.demand_hits::.cpu.data              78                       # number of demand (read+write) hits
system.l2cache.demand_hits::total                 196                       # number of demand (read+write) hits
system.l2cache.overall_hits::.cpu.inst            118                       # number of overall hits
system.l2cache.overall_hits::.cpu.data             78                       # number of overall hits
system.l2cache.overall_hits::total                196                       # number of overall hits
system.l2cache.demand_misses::.cpu.inst           840                       # number of demand (read+write) misses
system.l2cache.demand_misses::.cpu.data           489                       # number of demand (read+write) misses
system.l2cache.demand_misses::total              1329                       # number of demand (read+write) misses
system.l2cache.overall_misses::.cpu.inst          840                       # number of overall misses
system.l2cache.overall_misses::.cpu.data          489                       # number of overall misses
system.l2cache.overall_misses::total             1329                       # number of overall misses
system.l2cache.demand_miss_latency::.cpu.inst    603963000                       # number of demand (read+write) miss cycles
system.l2cache.demand_miss_latency::.cpu.data    352931000                       # number of demand (read+write) miss cycles
system.l2cache.demand_miss_latency::total    956894000                       # number of demand (read+write) miss cycles
system.l2cache.overall_miss_latency::.cpu.inst    603963000                       # number of overall miss cycles
system.l2cache.overall_miss_latency::.cpu.data    352931000                       # number of overall miss cycles
system.l2cache.overall_miss_latency::total    956894000                       # number of overall miss cycles
system.l2cache.demand_accesses::.cpu.inst          958                       # number of demand (read+write) accesses
system.l2cache.demand_accesses::.cpu.data          567                       # number of demand (read+write) accesses
system.l2cache.demand_accesses::total            1525                       # number of demand (read+write) accesses
system.l2cache.overall_accesses::.cpu.inst          958                       # number of overall (read+write) accesses
system.l2cache.overall_accesses::.cpu.data          567                       # number of overall (read+write) accesses
system.l2cache.overall_accesses::total           1525                       # number of overall (read+write) accesses
system.l2cache.demand_miss_rate::.cpu.inst     0.876827                       # miss rate for demand accesses
system.l2cache.demand_miss_rate::.cpu.data     0.862434                       # miss rate for demand accesses
system.l2cache.demand_miss_rate::total       0.871475                       # miss rate for demand accesses
system.l2cache.overall_miss_rate::.cpu.inst     0.876827                       # miss rate for overall accesses
system.l2cache.overall_miss_rate::.cpu.data     0.862434                       # miss rate for overall accesses
system.l2cache.overall_miss_rate::total      0.871475                       # miss rate for overall accesses
system.l2cache.demand_avg_miss_latency::.cpu.inst 719003.571429                       # average overall miss latency
system.l2cache.demand_avg_miss_latency::.cpu.data 721740.286299                       # average overall miss latency
system.l2cache.demand_avg_miss_latency::total 720010.534236                       # average overall miss latency
system.l2cache.overall_avg_miss_latency::.cpu.inst 719003.571429                       # average overall miss latency
system.l2cache.overall_avg_miss_latency::.cpu.data 721740.286299                       # average overall miss latency
system.l2cache.overall_avg_miss_latency::total 720010.534236                       # average overall miss latency
system.l2cache.blocked_cycles::no_mshrs             0                       # number of cycles access was blocked
system.l2cache.blocked_cycles::no_targets            0                       # number of cycles access was blocked
system.l2cache.blocked::no_mshrs                    0                       # number of cycles access was blocked
system.l2cache.blocked::no_targets                  0                       # number of cycles access was blocked
system.l2cache.avg_blocked_cycles::no_mshrs          nan                       # average number of cycles each access was blocked
system.l2cache.avg_blocked_cycles::no_targets          nan                       # average number of cycles each access was blocked
system.l2cache.writebacks::.writebacks              6                       # number of writebacks
system.l2cache.writebacks::total                    6                       # number of writebacks
system.l2cache.demand_mshr_misses::.cpu.inst          840                       # number of demand (read+write) MSHR misses
system.l2cache.demand_mshr_misses::.cpu.data          489                       # number of demand (read+write) MSHR misses
system.l2cache.demand_mshr_misses::total         1329                       # number of demand (read+write) MSHR misses
system.l2cache.overall_mshr_misses::.cpu.inst          840                       # number of overall MSHR misses
system.l2cache.overall_mshr_misses::.cpu.data          489                       # number of overall MSHR misses
system.l2cache.overall_mshr_misses::total         1329                       # number of overall MSHR misses
system.l2cache.demand_mshr_miss_latency::.cpu.inst    587163000                       # number of demand (read+write) MSHR miss cycles
system.l2cache.demand_mshr_miss_latency::.cpu.data    343151000                       # number of demand (read+write) MSHR miss cycles
system.l2cache.demand_mshr_miss_latency::total    930314000                       # number of demand (read+write) MSHR miss cycles
system.l2cache.overall_mshr_miss_latency::.cpu.inst    587163000                       # number of overall MSHR miss cycles
system.l2cache.overall_mshr_miss_latency::.cpu.data    343151000                       # number of overall MSHR miss cycles
system.l2cache.overall_mshr_miss_latency::total    930314000                       # number of overall MSHR miss cycles
system.l2cache.demand_mshr_miss_rate::.cpu.inst     0.876827                       # mshr miss rate for demand accesses
system.l2cache.demand_mshr_miss_rate::.cpu.data     0.862434                       # mshr miss rate for demand accesses
system.l2cache.demand_mshr_miss_rate::total     0.871475                       # mshr miss rate for demand accesses
system.l2cache.overall_mshr_miss_rate::.cpu.inst     0.876827                       # mshr miss rate for overall accesses
system.l2cache.overall_mshr_miss_rate::.cpu.data     0.862434                       # mshr miss rate for overall accesses
system.l2cache.overall_mshr_miss_rate::total     0.871475                       # mshr miss rate for overall accesses
system.l2cache.demand_avg_mshr_miss_latency::.cpu.inst 699003.571429                       # average overall mshr miss latency
system.l2cache.demand_avg_mshr_miss_latency::.cpu.data 701740.286299                       # average overall mshr miss latency
system.l2cache.demand_avg_mshr_miss_latency::total 700010.534236                       # average overall mshr miss latency
system.l2cache.overall_avg_mshr_miss_latency::.cpu.inst 699003.571429                       # average overall mshr miss latency
system.l2cache.overall_avg_mshr_miss_latency::.cpu.data 701740.286299                       # average overall mshr miss latency
system.l2cache.overall_avg_mshr_miss_latency::total 700010.534236                       # average overall mshr miss latency
system.l2cache.replacements                       211                       # number of replacements
system.l2cache.WritebackDirty_hits::.writebacks          152                       # number of WritebackDirty hits
system.l2cache.WritebackDirty_hits::total          152                       # number of WritebackDirty hits
system.l2cache.WritebackDirty_accesses::.writebacks          152                       # number of WritebackDirty accesses(hits+misses)
system.l2cache.WritebackDirty_accesses::total          152                       # number of WritebackDirty accesses(hits+misses)
system.l2cache.CleanEvict_mshr_misses::.writebacks          120                       # number of CleanEvict MSHR misses
system.l2cache.CleanEvict_mshr_misses::total          120                       # number of CleanEvict MSHR misses
system.l2cache.CleanEvict_mshr_miss_rate::.writebacks          inf                       # mshr miss rate for CleanEvict accesses
system.l2cache.CleanEvict_mshr_miss_rate::total          inf                       # mshr miss rate for CleanEvict accesses
system.l2cache.ReadExReq_hits::.cpu.data           16                       # number of ReadExReq hits
system.l2cache.ReadExReq_hits::total               16                       # number of ReadExReq hits
system.l2cache.ReadExReq_misses::.cpu.data          337                       # number of ReadExReq misses
system.l2cache.ReadExReq_misses::total            337                       # number of ReadExReq misses
system.l2cache.ReadExReq_miss_latency::.cpu.data    245317000                       # number of ReadExReq miss cycles
system.l2cache.ReadExReq_miss_latency::total    245317000                       # number of ReadExReq miss cycles
system.l2cache.ReadExReq_accesses::.cpu.data          353                       # number of ReadExReq accesses(hits+misses)
system.l2cache.ReadExReq_accesses::total          353                       # number of ReadExReq accesses(hits+misses)
system.l2cache.ReadExReq_miss_rate::.cpu.data     0.954674                       # miss rate for ReadExReq accesses
system.l2cache.ReadExReq_miss_rate::total     0.954674                       # miss rate for ReadExReq accesses
system.l2cache.ReadExReq_avg_miss_latency::.cpu.data 727943.620178                       # average ReadExReq miss latency
system.l2cache.ReadExReq_avg_miss_latency::total 727943.620178                       # average ReadExReq miss latency
system.l2cache.ReadExReq_mshr_misses::.cpu.data          337                       # number of ReadExReq MSHR misses
system.l2cache.ReadExReq_mshr_misses::total          337                       # number of ReadExReq MSHR misses
system.l2cache.ReadExReq_mshr_miss_latency::.cpu.data    238577000                       # number of ReadExReq MSHR miss cycles
system.l2cache.ReadExReq_mshr_miss_latency::total    238577000                       # number of ReadExReq MSHR miss cycles
system.l2cache.ReadExReq_mshr_miss_rate::.cpu.data     0.954674                       # mshr miss rate for ReadExReq accesses
system.l2cache.ReadExReq_mshr_miss_rate::total     0.954674                       # mshr miss rate for ReadExReq accesses
system.l2cache.ReadExReq_avg_mshr_miss_latency::.cpu.data 707943.620178                       # average ReadExReq mshr miss latency
system.l2cache.ReadExReq_avg_mshr_miss_latency::total 707943.620178                       # average ReadExReq mshr miss latency
system.l2cache.ReadSharedReq_hits::.cpu.inst          118                       # number of ReadSharedReq hits
system.l2cache.ReadSharedReq_hits::.cpu.data           62                       # number of ReadSharedReq hits
system.l2cache.ReadSharedReq_hits::total          180                       # number of ReadSharedReq hits
system.l2cache.ReadSharedReq_misses::.cpu.inst          840                       # number of ReadSharedReq misses
system.l2cache.ReadSharedReq_misses::.cpu.data          152                       # number of ReadSharedReq misses
system.l2cache.ReadSharedReq_misses::total          992                       # number of ReadSharedReq misses
system.l2cache.ReadSharedReq_miss_latency::.cpu.inst    603963000                       # number of ReadSharedReq miss cycles
system.l2cache.ReadSharedReq_miss_latency::.cpu.data    107614000                       # number of ReadSharedReq miss cycles
system.l2cache.ReadSharedReq_miss_latency::total    711577000                       # number of ReadSharedReq miss cycles
system.l2cache.ReadSharedReq_accesses::.cpu.inst          958                       # number of ReadSharedReq accesses(hits+misses)
system.l2cache.ReadSharedReq_accesses::.cpu.data          214                       # number of ReadSharedReq accesses(hits+misses)
system.l2cache.ReadSharedReq_accesses::total         1172                       # number of ReadSharedReq accesses(hits+misses)
system.l2cache.ReadSharedReq_miss_rate::.cpu.inst     0.876827                       # miss rate for ReadSharedReq accesses
system.l2cache.ReadSharedReq_miss_rate::.cpu.data     0.710280                       # miss rate for ReadSharedReq accesses
system.l2cache.ReadSharedReq_miss_rate::total     0.846416                       # miss rate for ReadSharedReq accesses
system.l2cache.ReadSharedReq_avg_miss_latency::.cpu.inst 719003.571429                       # average ReadSharedReq miss latency
system.l2cache.ReadSharedReq_avg_miss_latency::.cpu.data 707986.842105                       # average ReadSharedReq miss latency
system.l2cache.ReadSharedReq_avg_miss_latency::total 717315.524194                       # average ReadSharedReq miss latency
system.l2cache.ReadSharedReq_mshr_misses::.cpu.inst          840                       # number of ReadSharedReq MSHR misses
system.l2cache.ReadSharedReq_mshr_misses::.cpu.data          152                       # number of ReadSharedReq MSHR misses
system.l2cache.ReadSharedReq_mshr_misses::total          992                       # number of ReadSharedReq MSHR misses
system.l2cache.ReadSharedReq_mshr_miss_latency::.cpu.inst    587163000                       # number of ReadSharedReq MSHR miss cycles
system.l2cache.ReadSharedReq_mshr_miss_latency::.cpu.data    104574000                       # number of ReadSharedReq MSHR miss cycles
system.l2cache.ReadSharedReq_mshr_miss_latency::total    691737000                       # number of ReadSharedReq MSHR miss cycles
system.l2cache.ReadSharedReq_mshr_miss_rate::.cpu.inst     0.876827                       # mshr miss rate for ReadSharedReq accesses
system.l2cache.ReadSharedReq_mshr_miss_rate::.cpu.data     0.710280                       # mshr miss rate for ReadSharedReq accesses
system.l2cache.ReadSharedReq_mshr_miss_rate::total     0.846416                       # mshr miss rate for ReadSharedReq accesses
system.l2cache.ReadSharedReq_avg_mshr_miss_latency::.cpu.inst 699003.571429                       # average ReadSharedReq mshr miss latency
system.l2cache.ReadSharedReq_avg_mshr_miss_latency::.cpu.data 687986.842105                       # average ReadSharedReq mshr miss latency
system.l2cache.ReadSharedReq_avg_mshr_miss_latency::total 697315.524194                       # average ReadSharedReq mshr miss latency
system.l2cache.power_state.pwrStateResidencyTicks::UNDEFINED   1066516000                       # Cumulative time (in ticks) in various power states
system.l2cache.tags.tagsinuse              602.742834                       # Cycle average of tags in use
system.l2cache.tags.total_refs                   2140                       # Total number of references to valid blocks.
system.l2cache.tags.sampled_refs                 1343                       # Sample count of references to valid blocks.
system.l2cache.tags.avg_refs                 1.593448                       # Average number of references to valid blocks.
system.l2cache.tags.warmup_cycle               708000                       # Cycle when the warmup percentage was hit.
system.l2cache.tags.occ_blocks::.writebacks     5.176346                       # Average occupied blocks per requestor
system.l2cache.tags.occ_blocks::.cpu.inst   337.791231                       # Average occupied blocks per requestor
system.l2cache.tags.occ_blocks::.cpu.data   259.775257                       # Average occupied blocks per requestor
system.l2cache.tags.occ_percent::.writebacks     0.001264                       # Average percentage of cache occupancy
system.l2cache.tags.occ_percent::.cpu.inst     0.082469                       # Average percentage of cache occupancy
system.l2cache.tags.occ_percent::.cpu.data     0.063422                       # Average percentage of cache occupancy
system.l2cache.tags.occ_percent::total       0.147154                       # Average percentage of cache occupancy
system.l2cache.tags.occ_task_id_blocks::1024         1132                       # Occupied blocks per task id
system.l2cache.tags.age_task_id_blocks_1024::0           14                       # Occupied blocks per task id
system.l2cache.tags.age_task_id_blocks_1024::1           93                       # Occupied blocks per task id
system.l2cache.tags.age_task_id_blocks_1024::2          967                       # Occupied blocks per task id
system.l2cache.tags.age_task_id_blocks_1024::3           58                       # Occupied blocks per task id
system.l2cache.tags.occ_task_id_percent::1024     0.276367                       # Percentage of cache occupancy per task id
system.l2cache.tags.tag_accesses                 3603                       # Number of tag accesses
system.l2cache.tags.data_accesses                3603                       # Number of data accesses
system.l2cache.tags.power_state.pwrStateResidencyTicks::UNDEFINED   1066516000                       # Cumulative time (in ticks) in various power states
system.clk_domain.clock                          1000                       # Clock period in ticks
system.clk_domain.voltage_domain.voltage            1                       # Voltage in Volts
system.l3Dram.demand_hits::.cpu.inst                6                       # number of demand (read+write) hits
system.l3Dram.demand_hits::.cpu.data                4                       # number of demand (read+write) hits
system.l3Dram.demand_hits::total                   10                       # number of demand (read+write) hits
system.l3Dram.overall_hits::.cpu.inst               6                       # number of overall hits
system.l3Dram.overall_hits::.cpu.data               4                       # number of overall hits
system.l3Dram.overall_hits::total                  10                       # number of overall hits
system.l3Dram.demand_misses::.cpu.inst            834                       # number of demand (read+write) misses
system.l3Dram.demand_misses::.cpu.data            485                       # number of demand (read+write) misses
system.l3Dram.demand_misses::total               1319                       # number of demand (read+write) misses
system.l3Dram.overall_misses::.cpu.inst           834                       # number of overall misses
system.l3Dram.overall_misses::.cpu.data           485                       # number of overall misses
system.l3Dram.overall_misses::total              1319                       # number of overall misses
system.l3Dram.demand_miss_latency::.cpu.inst    569217000                       # number of demand (read+write) miss cycles
system.l3Dram.demand_miss_latency::.cpu.data    332678000                       # number of demand (read+write) miss cycles
system.l3Dram.demand_miss_latency::total    901895000                       # number of demand (read+write) miss cycles
system.l3Dram.overall_miss_latency::.cpu.inst    569217000                       # number of overall miss cycles
system.l3Dram.overall_miss_latency::.cpu.data    332678000                       # number of overall miss cycles
system.l3Dram.overall_miss_latency::total    901895000                       # number of overall miss cycles
system.l3Dram.demand_accesses::.cpu.inst          840                       # number of demand (read+write) accesses
system.l3Dram.demand_accesses::.cpu.data          489                       # number of demand (read+write) accesses
system.l3Dram.demand_accesses::total             1329                       # number of demand (read+write) accesses
system.l3Dram.overall_accesses::.cpu.inst          840                       # number of overall (read+write) accesses
system.l3Dram.overall_accesses::.cpu.data          489                       # number of overall (read+write) accesses
system.l3Dram.overall_accesses::total            1329                       # number of overall (read+write) accesses
system.l3Dram.demand_miss_rate::.cpu.inst     0.992857                       # miss rate for demand accesses
system.l3Dram.demand_miss_rate::.cpu.data     0.991820                       # miss rate for demand accesses
system.l3Dram.demand_miss_rate::total        0.992476                       # miss rate for demand accesses
system.l3Dram.overall_miss_rate::.cpu.inst     0.992857                       # miss rate for overall accesses
system.l3Dram.overall_miss_rate::.cpu.data     0.991820                       # miss rate for overall accesses
system.l3Dram.overall_miss_rate::total       0.992476                       # miss rate for overall accesses
system.l3Dram.demand_avg_miss_latency::.cpu.inst 682514.388489                       # average overall miss latency
system.l3Dram.demand_avg_miss_latency::.cpu.data 685934.020619                       # average overall miss latency
[...]
system.DynamicCache.demand_miss_latency::.cpu.inst    484149000                       # number of demand (read+write) miss cycles
system.DynamicCache.demand_miss_latency::.cpu.data    283208000                       # number of demand (read+write) miss cycles
system.DynamicCache.demand_miss_latency::total    767357000                       # number of demand (read+write) miss cycles
system.DynamicCache.overall_miss_latency::.cpu.inst    484149000                       # number of overall miss cycles
system.DynamicCache.overall_miss_latency::.cpu.data    283208000                       # number of overall miss cycles
system.DynamicCache.overall_miss_latency::total    767357000                       # number of overall miss cycles
system.DynamicCache.demand_accesses::.cpu.inst          834                       # number of demand (read+write) accesses
system.DynamicCache.demand_accesses::.cpu.data          485                       # number of demand (read+write) accesses
system.DynamicCache.demand_accesses::total         1319                       # number of demand (read+write) accesses
system.DynamicCache.overall_accesses::.cpu.inst          834                       # number of overall (read+write) accesses
system.DynamicCache.overall_accesses::.cpu.data          485                       # number of overall (read+write) accesses
system.DynamicCache.overall_accesses::total         1319                       # number of overall (read+write) accesses
system.DynamicCache.demand_miss_rate::.cpu.inst            1                       # miss rate for demand accesses
system.DynamicCache.demand_miss_rate::.cpu.data            1                       # miss rate for demand accesses
system.DynamicCache.demand_miss_rate::total            1                       # miss rate for demand accesses
system.DynamicCache.overall_miss_rate::.cpu.inst            1                       # miss rate for overall accesses
system.DynamicCache.overall_miss_rate::.cpu.data            1                       # miss rate for overall accesses
system.DynamicCache.overall_miss_rate::total            1                       # miss rate for overall accesses
system.DynamicCache.demand_avg_miss_latency::.cpu.inst 580514.388489                       # average overall miss latency
system.DynamicCache.demand_avg_miss_latency::.cpu.data 583934.020619                       # average overall miss latency
system.DynamicCache.demand_avg_miss_latency::total 581771.796816                       # average overall miss latency
system.DynamicCache.overall_avg_miss_latency::.cpu.inst 580514.388489                       # average overall miss latency
system.DynamicCache.overall_avg_miss_latency::.cpu.data 583934.020619                       # average overall miss latency
system.DynamicCache.overall_avg_miss_latency::total 581771.796816                       # average overall miss latency
system.DynamicCache.blocked_cycles::no_mshrs            0                       # number of cycles access was blocked
system.DynamicCache.blocked_cycles::no_targets            0                       # number of cycles access was blocked
system.DynamicCache.blocked::no_mshrs               0                       # number of cycles access was blocked
system.DynamicCache.blocked::no_targets             0                       # number of cycles access was blocked
system.DynamicCache.avg_blocked_cycles::no_mshrs          nan                       # average number of cycles each access was blocked
system.DynamicCache.avg_blocked_cycles::no_targets          nan                       # average number of cycles each access was blocked
system.DynamicCache.demand_mshr_misses::.cpu.inst          834                       # number of demand (read+write) MSHR misses
system.DynamicCache.demand_mshr_misses::.cpu.data          485                       # number of demand (read+write) MSHR misses
system.DynamicCache.demand_mshr_misses::total         1319                       # number of demand (read+write) MSHR misses
system.DynamicCache.overall_mshr_misses::.cpu.inst          834                       # number of overall MSHR misses
system.DynamicCache.overall_mshr_misses::.cpu.data          485                       # number of overall MSHR misses
system.DynamicCache.overall_mshr_misses::total         1319                       # number of overall MSHR misses
system.DynamicCache.demand_mshr_miss_latency::.cpu.inst    375729000                       # number of demand (read+write) MSHR miss cycles
system.DynamicCache.demand_mshr_miss_latency::.cpu.data    220158000                       # number of demand (read+write) MSHR miss cycles
system.DynamicCache.demand_mshr_miss_latency::total    595887000                       # number of demand (read+write) MSHR miss cycles
system.DynamicCache.overall_mshr_miss_latency::.cpu.inst    375729000                       # number of overall MSHR miss cycles
system.DynamicCache.overall_mshr_miss_latency::.cpu.data    220158000                       # number of overall MSHR miss cycles
system.DynamicCache.overall_mshr_miss_latency::total    595887000                       # number of overall MSHR miss cycles
system.DynamicCache.demand_mshr_miss_rate::.cpu.inst            1                       # mshr miss rate for demand accesses
system.DynamicCache.demand_mshr_miss_rate::.cpu.data            1                       # mshr miss rate for demand accesses
system.DynamicCache.demand_mshr_miss_rate::total            1                       # mshr miss rate for demand accesses
system.DynamicCache.overall_mshr_miss_rate::.cpu.inst            1                       # mshr miss rate for overall accesses
system.DynamicCache.overall_mshr_miss_rate::.cpu.data            1                       # mshr miss rate for overall accesses
system.DynamicCache.overall_mshr_miss_rate::total            1                       # mshr miss rate for overall accesses
system.DynamicCache.demand_avg_mshr_miss_latency::.cpu.inst 450514.388489                       # average overall mshr miss latency
system.DynamicCache.demand_avg_mshr_miss_latency::.cpu.data 453934.020619                       # average overall mshr miss latency
system.DynamicCache.demand_avg_mshr_miss_latency::total 451771.796816                       # average overall mshr miss latency
system.DynamicCache.overall_avg_mshr_miss_latency::.cpu.inst 450514.388489                       # average overall mshr miss latency
system.DynamicCache.overall_avg_mshr_miss_latency::.cpu.data 453934.020619                       # average overall mshr miss latency
system.DynamicCache.overall_avg_mshr_miss_latency::total 451771.796816                       # average overall mshr miss latency
system.DynamicCache.replacements                   78                       # number of replacements
system.DynamicCache.CleanEvict_mshr_misses::.writebacks           64                       # number of CleanEvict MSHR misses
system.DynamicCache.CleanEvict_mshr_misses::total           64                       # number of CleanEvict MSHR misses
system.DynamicCache.CleanEvict_mshr_miss_rate::.writebacks          inf                       # mshr miss rate for CleanEvict accesses
system.DynamicCache.CleanEvict_mshr_miss_rate::total          inf                       # mshr miss rate for CleanEvict accesses
system.DynamicCache.ReadExReq_misses::.cpu.data          337                       # number of ReadExReq misses
system.DynamicCache.ReadExReq_misses::total          337                       # number of ReadExReq misses
system.DynamicCache.ReadExReq_miss_latency::.cpu.data    197126000                       # number of ReadExReq miss cycles
system.DynamicCache.ReadExReq_miss_latency::total    197126000                       # number of ReadExReq miss cycles
system.DynamicCache.ReadExReq_accesses::.cpu.data          337                       # number of ReadExReq accesses(hits+misses)
system.DynamicCache.ReadExReq_accesses::total          337                       # number of ReadExReq accesses(hits+misses)
system.DynamicCache.ReadExReq_miss_rate::.cpu.data            1                       # miss rate for ReadExReq accesses
system.DynamicCache.ReadExReq_miss_rate::total            1                       # miss rate for ReadExReq accesses
system.DynamicCache.ReadExReq_avg_miss_latency::.cpu.data 584943.620178                       # average ReadExReq miss latency
system.DynamicCache.ReadExReq_avg_miss_latency::total 584943.620178                       # average ReadExReq miss latency
system.DynamicCache.ReadExReq_mshr_misses::.cpu.data          337                       # number of ReadExReq MSHR misses
system.DynamicCache.ReadExReq_mshr_misses::total          337                       # number of ReadExReq MSHR misses
system.DynamicCache.ReadExReq_mshr_miss_latency::.cpu.data    153316000                       # number of ReadExReq MSHR miss cycles
system.DynamicCache.ReadExReq_mshr_miss_latency::total    153316000                       # number of ReadExReq MSHR miss cycles
system.DynamicCache.ReadExReq_mshr_miss_rate::.cpu.data            1                       # mshr miss rate for ReadExReq accesses
system.DynamicCache.ReadExReq_mshr_miss_rate::total            1                       # mshr miss rate for ReadExReq accesses
system.DynamicCache.ReadExReq_avg_mshr_miss_latency::.cpu.data 454943.620178                       # average ReadExReq mshr miss latency
system.DynamicCache.ReadExReq_avg_mshr_miss_latency::total 454943.620178                       # average ReadExReq mshr miss latency
system.DynamicCache.ReadSharedReq_misses::.cpu.inst          834                       # number of ReadSharedReq misses
system.DynamicCache.ReadSharedReq_misses::.cpu.data          148                       # number of ReadSharedReq misses
system.DynamicCache.ReadSharedReq_misses::total          982                       # number of ReadSharedReq misses
system.DynamicCache.ReadSharedReq_miss_latency::.cpu.inst    484149000                       # number of ReadSharedReq miss cycles
system.DynamicCache.ReadSharedReq_miss_latency::.cpu.data     86082000                       # number of ReadSharedReq miss cycles
system.DynamicCache.ReadSharedReq_miss_latency::total    570231000                       # number of ReadSharedReq miss cycles
system.DynamicCache.ReadSharedReq_accesses::.cpu.inst          834                       # number of ReadSharedReq accesses(hits+misses)
system.DynamicCache.ReadSharedReq_accesses::.cpu.data          148                       # number of ReadSharedReq accesses(hits+misses)
system.DynamicCache.ReadSharedReq_accesses::total          982                       # number of ReadSharedReq accesses(hits+misses)
system.DynamicCache.ReadSharedReq_miss_rate::.cpu.inst            1                       # miss rate for ReadSharedReq accesses
system.DynamicCache.ReadSharedReq_miss_rate::.cpu.data            1                       # miss rate for ReadSharedReq accesses
system.DynamicCache.ReadSharedReq_miss_rate::total            1                       # miss rate for ReadSharedReq accesses
system.DynamicCache.ReadSharedReq_avg_miss_latency::.cpu.inst 580514.388489                       # average ReadSharedReq miss latency
system.DynamicCache.ReadSharedReq_avg_miss_latency::.cpu.data 581635.135135                       # average ReadSharedReq miss latency
system.DynamicCache.ReadSharedReq_avg_miss_latency::total 580683.299389                       # average ReadSharedReq miss latency
system.DynamicCache.ReadSharedReq_mshr_misses::.cpu.inst          834                       # number of ReadSharedReq MSHR misses
system.DynamicCache.ReadSharedReq_mshr_misses::.cpu.data          148                       # number of ReadSharedReq MSHR misses
system.DynamicCache.ReadSharedReq_mshr_misses::total          982                       # number of ReadSharedReq MSHR misses
system.DynamicCache.ReadSharedReq_mshr_miss_latency::.cpu.inst    375729000                       # number of ReadSharedReq MSHR miss cycles
system.DynamicCache.ReadSharedReq_mshr_miss_latency::.cpu.data     66842000                       # number of ReadSharedReq MSHR miss cycles
system.DynamicCache.ReadSharedReq_mshr_miss_latency::total    442571000                       # number of ReadSharedReq MSHR miss cycles
system.DynamicCache.ReadSharedReq_mshr_miss_rate::.cpu.inst            1                       # mshr miss rate for ReadSharedReq accesses
system.DynamicCache.ReadSharedReq_mshr_miss_rate::.cpu.data            1                       # mshr miss rate for ReadSharedReq accesses
system.DynamicCache.ReadSharedReq_mshr_miss_rate::total            1                       # mshr miss rate for ReadSharedReq accesses
system.DynamicCache.ReadSharedReq_avg_mshr_miss_latency::.cpu.inst 450514.388489                       # average ReadSharedReq mshr miss latency
system.DynamicCache.ReadSharedReq_avg_mshr_miss_latency::.cpu.data 451635.135135                       # average ReadSharedReq mshr miss latency
system.DynamicCache.ReadSharedReq_avg_mshr_miss_latency::total 450683.299389                       # average ReadSharedReq mshr miss latency
system.DynamicCache.power_state.pwrStateResidencyTicks::UNDEFINED   1066516000                       # Cumulative time (in ticks) in various power states
system.DynamicCache.tags.tagsinuse         645.295291                       # Cycle average of tags in use
system.DynamicCache.tags.total_refs              1319                       # Total number of references to valid blocks.
system.DynamicCache.tags.sampled_refs            1319                       # Sample count of references to valid blocks.
system.DynamicCache.tags.avg_refs                   1                       # Average number of references to valid blocks.
system.DynamicCache.tags.warmup_cycle          527000                       # Cycle when the warmup percentage was hit.
system.DynamicCache.tags.occ_blocks::.cpu.inst   364.409987                       # Average occupied blocks per requestor
system.DynamicCache.tags.occ_blocks::.cpu.data   280.885304                       # Average occupied blocks per requestor
system.DynamicCache.tags.occ_percent::.cpu.inst     0.044484                       # Average percentage of cache occupancy
system.DynamicCache.tags.occ_percent::.cpu.data     0.034288                       # Average percentage of cache occupancy
system.DynamicCache.tags.occ_percent::total     0.078771                       # Average percentage of cache occupancy
system.DynamicCache.tags.occ_task_id_blocks::1024         1241                       # Occupied blocks per task id
system.DynamicCache.tags.age_task_id_blocks_1024::0           13                       # Occupied blocks per task id
system.DynamicCache.tags.age_task_id_blocks_1024::1           93                       # Occupied blocks per task id
system.DynamicCache.tags.age_task_id_blocks_1024::2         1064                       # Occupied blocks per task id
system.DynamicCache.tags.age_task_id_blocks_1024::3           71                       # Occupied blocks per task id
system.DynamicCache.tags.occ_task_id_percent::1024     0.151489                       # Percentage of cache occupancy per task id
system.DynamicCache.tags.tag_accesses            2702                       # Number of tag accesses
system.DynamicCache.tags.data_accesses           2702                       # Number of data accesses
system.DynamicCache.tags.power_state.pwrStateResidencyTicks::UNDEFINED   1066516000                       # Cumulative time (in ticks) in various power states
system.l2bar.trans_dist::ReadResp                1172                       # Transaction distribution
system.l2bar.trans_dist::WritebackDirty           158                       # Transaction distribution
system.l2bar.trans_dist::CleanEvict               944                       # Transaction distribution
system.l2bar.trans_dist::ReadExReq                353                       # Transaction distribution
system.l2bar.trans_dist::ReadExResp               353                       # Transaction distribution
system.l2bar.trans_dist::ReadSharedReq           1172                       # Transaction distribution
system.l2bar.pkt_count_system.dcache.mem_side::system.l2cache.cpu_side         1343                       # Packet count per connected master and slave (bytes)
system.l2bar.pkt_count_system.icache.mem_side::system.l2cache.cpu_side         2442                       # Packet count per connected master and slave (bytes)
system.l2bar.pkt_count::total                    3785                       # Packet count per connected master and slave (bytes)
system.l2bar.pkt_size_system.dcache.mem_side::system.l2cache.cpu_side        46016                       # Cumulative packet size per connected master and slave (bytes)
system.l2bar.pkt_size_system.icache.mem_side::system.l2cache.cpu_side        61312                       # Cumulative packet size per connected master and slave (bytes)
system.l2bar.pkt_size::total                   107328                       # Cumulative packet size per connected master and slave (bytes)
system.l2bar.snoops                               367                       # Total snoops (count)
system.l2bar.snoopTraffic                         384                       # Total snoop traffic (bytes)
system.l2bar.snoop_fanout::samples               1892                       # Request fanout histogram
system.l2bar.snoop_fanout::mean              0.156977                       # Request fanout histogram
system.l2bar.snoop_fanout::stdev             0.363875                       # Request fanout histogram
system.l2bar.snoop_fanout::underflows               0      0.00%      0.00% # Request fanout histogram
system.l2bar.snoop_fanout::0                     1595     84.30%     84.30% # Request fanout histogram
system.l2bar.snoop_fanout::1                      297     15.70%    100.00% # Request fanout histogram
system.l2bar.snoop_fanout::2                        0      0.00%    100.00% # Request fanout histogram
system.l2bar.snoop_fanout::overflows                0      0.00%    100.00% # Request fanout histogram
system.l2bar.snoop_fanout::min_value                0                       # Request fanout histogram
system.l2bar.snoop_fanout::max_value                1                       # Request fanout histogram
system.l2bar.snoop_fanout::total                 1892                       # Request fanout histogram
system.l2bar.reqLayer0.occupancy              2564000                       # Layer occupancy (ticks)
system.l2bar.reqLayer0.utilization                0.2                       # Layer utilization (%)
system.l2bar.respLayer1.occupancy             2874000                       # Layer occupancy (ticks)
system.l2bar.respLayer1.utilization               0.3                       # Layer utilization (%)
system.l2bar.respLayer0.occupancy             1701000                       # Layer occupancy (ticks)
system.l2bar.respLayer0.utilization               0.2                       # Layer utilization (%)
system.l2bar.power_state.pwrStateResidencyTicks::UNDEFINED   1066516000                       # Cumulative time (in ticks) in various power states
system.cpu.dtb.walker.power_state.pwrStateResidencyTicks::UNDEFINED   1066516000                       # Cumulative time (in ticks) in various power states
system.cpu.interrupts.clk_domain.clock          16000                       # Clock period in ticks
system.cpu.itb.walker.power_state.pwrStateResidencyTicks::UNDEFINED   1066516000                       # Cumulative time (in ticks) in various power states
system.cpu.power_state.numTransitions               1                       # Number of power state transitions
system.cpu.power_state.pwrStateResidencyTicks::ON   1066516000                       # Cumulative time (in ticks) in various power states

---------- End Simulation Statistics   ----------
