
---------- Begin Simulation Statistics ----------
final_tick                               200339021000                       # Number of ticks from beginning of simulation (restored from checkpoints and never reset)
host_inst_rate                                 192247                       # Simulator instruction rate (inst/s)
host_mem_usage                                 678972                       # Number of bytes of host memory used
host_op_rate                                   227167                       # Simulator op (including micro ops) rate (op/s)
host_seconds                                    10.40                       # Real time elapsed on the host
host_tick_rate                            19257051598                       # Simulator tick rate (ticks/s)
sim_freq                                 1000000000000                       # Frequency of simulated ticks
sim_insts                                     2000000                       # Number of instructions simulated
sim_ops                                       2363306                       # Number of ops (including micro ops) simulated
sim_seconds                                  0.200339                       # Number of seconds simulated
sim_ticks                                200339021000                       # Number of ticks simulated
system.cachebus.snoop_filter.hit_multi_requests            0                       # Number of requests hitting in the snoop filter with multiple (>1) holders of the requested data.
system.cachebus.snoop_filter.hit_multi_snoops            0                       # Number of snoops hitting in the snoop filter with multiple (>1) holders of the requested data.
system.cachebus.snoop_filter.hit_single_requests            0                       # Number of requests hitting in the snoop filter with a single holder of the requested data.
system.cachebus.snoop_filter.hit_single_snoops            0                       # Number of snoops hitting in the snoop filter with a single holder of the requested data.
system.cachebus.snoop_filter.tot_requests            0                       # Total number of requests made to the snoop filter.
system.cachebus.snoop_filter.tot_snoops             0                       # Total number of snoops made to the snoop filter.
system.cpu.Branches                             90764                       # Number of branches fetched
system.cpu.committedInsts                     2000000                       # Number of instructions committed
system.cpu.committedOps                       2363306                       # Number of ops (including micro ops) committed
system.cpu.dtb.rdAccesses                        4335                       # TLB accesses on read requests
system.cpu.dtb.rdMisses                            16                       # TLB misses on read requests
system.cpu.dtb.wrAccesses                     1729322                       # TLB accesses on write requests
system.cpu.dtb.wrMisses                          6745                       # TLB misses on write requests
system.cpu.idle_fraction                            0                       # Percentage of idle cycles
system.cpu.itb.rdAccesses                           0                       # TLB accesses on read requests
system.cpu.itb.rdMisses                             0                       # TLB misses on read requests
system.cpu.itb.wrAccesses                     3132281                       # TLB accesses on write requests
system.cpu.itb.wrMisses                            47                       # TLB misses on write requests
system.cpu.not_idle_fraction                        1                       # Percentage of non-idle cycles
system.cpu.numCycles                        200339021                       # number of cpu cycles simulated
system.cpu.numWorkItemsCompleted                    0                       # number of work items this cpu completed
system.cpu.numWorkItemsStarted                      0                       # number of work items this cpu started
system.cpu.num_busy_cycles                  200339021                       # Number of busy cycles
system.cpu.num_cc_register_reads               453301                       # number of times the CC registers were read
system.cpu.num_cc_register_writes              355726                       # number of times the CC registers were written
system.cpu.num_conditional_control_insts        89765                       # number of instructions that are conditional controls
system.cpu.num_fp_alu_accesses                1637726                       # Number of float alu accesses
system.cpu.num_fp_insts                       1637726                       # number of float instructions
system.cpu.num_fp_register_reads              1638237                       # number of times the floating registers were read
system.cpu.num_fp_register_writes                 609                       # number of times the floating registers were written
system.cpu.num_func_calls                         651                       # number of times a function call or return occured
system.cpu.num_idle_cycles                          0                       # Number of idle cycles
system.cpu.num_int_alu_accesses               2365957                       # Number of integer alu accesses
system.cpu.num_int_insts                      2365957                       # number of integer instructions
system.cpu.num_int_register_reads             6028731                       # number of times the integer registers were read
system.cpu.num_int_register_writes             546058                       # number of times the integer registers were written
system.cpu.num_load_insts                        4320                       # Number of load instructions
system.cpu.num_mem_refs                       1733642                       # number of memory refs
system.cpu.num_store_insts                    1729322                       # Number of store instructions
system.cpu.num_vec_alu_accesses                     0                       # Number of vector alu accesses
system.cpu.num_vec_insts                            0                       # number of vector instructions
system.cpu.num_vec_register_reads                   0                       # number of times the vector registers were read
system.cpu.num_vec_register_writes                  0                       # number of times the vector registers were written
system.cpu.op_class::No_OpClass                   186      0.01%      0.01% # Class of executed instruction
system.cpu.op_class::IntAlu                    632197     26.71%     26.72% # Class of executed instruction
system.cpu.op_class::IntMult                       29      0.00%     26.72% # Class of executed instruction
system.cpu.op_class::IntDiv                        70      0.00%     26.72% # Class of executed instruction
system.cpu.op_class::FloatAdd                      19      0.00%     26.73% # Class of executed instruction
system.cpu.op_class::FloatCmp                       0      0.00%     26.73% # Class of executed instruction
system.cpu.op_class::FloatCvt                       0      0.00%     26.73% # Class of executed instruction
system.cpu.op_class::FloatMult                      0      0.00%     26.73% # Class of executed instruction
system.cpu.op_class::FloatMultAcc                   0      0.00%     26.73% # Class of executed instruction
system.cpu.op_class::FloatDiv                       0      0.00%     26.73% # Class of executed instruction
system.cpu.op_class::FloatMisc                      0      0.00%     26.73% # Class of executed instruction
system.cpu.op_class::FloatSqrt                      0      0.00%     26.73% # Class of executed instruction
system.cpu.op_class::SimdAdd                        0      0.00%     26.73% # Class of executed instruction
system.cpu.op_class::SimdAddAcc                     0      0.00%     26.73% # Class of executed instruction
system.cpu.op_class::SimdAlu                      152      0.01%     26.73% # Class of executed instruction
system.cpu.op_class::SimdCmp                        0      0.00%     26.73% # Class of executed instruction
system.cpu.op_class::SimdCvt                      158      0.01%     26.74% # Class of executed instruction
system.cpu.op_class::SimdMisc                     221      0.01%     26.75% # Class of executed instruction
system.cpu.op_class::SimdMult                       0      0.00%     26.75% # Class of executed instruction
system.cpu.op_class::SimdMultAcc                    0      0.00%     26.75% # Class of executed instruction
system.cpu.op_class::SimdShift                      0      0.00%     26.75% # Class of executed instruction
system.cpu.op_class::SimdShiftAcc                   0      0.00%     26.75% # Class of executed instruction
system.cpu.op_class::SimdDiv                        0      0.00%     26.75% # Class of executed instruction
system.cpu.op_class::SimdSqrt                       0      0.00%     26.75% # Class of executed instruction
system.cpu.op_class::SimdFloatAdd                   0      0.00%     26.75% # Class of executed instruction
system.cpu.op_class::SimdFloatAlu                   0      0.00%     26.75% # Class of executed instruction
system.cpu.op_class::SimdFloatCmp                   0      0.00%     26.75% # Class of executed instruction
system.cpu.op_class::SimdFloatCvt                   2      0.00%     26.75% # Class of executed instruction
system.cpu.op_class::SimdFloatDiv                   0      0.00%     26.75% # Class of executed instruction
system.cpu.op_class::SimdFloatMisc                  0      0.00%     26.75% # Class of executed instruction
system.cpu.op_class::SimdFloatMult                  0      0.00%     26.75% # Class of executed instruction
system.cpu.op_class::SimdFloatMultAcc               0      0.00%     26.75% # Class of executed instruction
system.cpu.op_class::SimdFloatSqrt                  0      0.00%     26.75% # Class of executed instruction
system.cpu.op_class::SimdReduceAdd                  0      0.00%     26.75% # Class of executed instruction
system.cpu.op_class::SimdReduceAlu                  0      0.00%     26.75% # Class of executed instruction
system.cpu.op_class::SimdReduceCmp                  0      0.00%     26.75% # Class of executed instruction
system.cpu.op_class::SimdFloatReduceAdd             0      0.00%     26.75% # Class of executed instruction
system.cpu.op_class::SimdFloatReduceCmp             0      0.00%     26.75% # Class of executed instruction
system.cpu.op_class::SimdAes                        0      0.00%     26.75% # Class of executed instruction
system.cpu.op_class::SimdAesMix                     0      0.00%     26.75% # Class of executed instruction
system.cpu.op_class::SimdSha1Hash                   0      0.00%     26.75% # Class of executed instruction
system.cpu.op_class::SimdSha1Hash2                  0      0.00%     26.75% # Class of executed instruction
system.cpu.op_class::SimdSha256Hash                 0      0.00%     26.75% # Class of executed instruction
system.cpu.op_class::SimdSha256Hash2                0      0.00%     26.75% # Class of executed instruction
system.cpu.op_class::SimdShaSigma2                  0      0.00%     26.75% # Class of executed instruction
system.cpu.op_class::SimdShaSigma3                  0      0.00%     26.75% # Class of executed instruction
system.cpu.op_class::SimdPredAlu                    0      0.00%     26.75% # Class of executed instruction
system.cpu.op_class::MemRead                     4218      0.18%     26.93% # Class of executed instruction
system.cpu.op_class::MemWrite                   92316      3.90%     30.83% # Class of executed instruction
system.cpu.op_class::FloatMemRead                 102      0.00%     30.83% # Class of executed instruction
system.cpu.op_class::FloatMemWrite            1637006     69.17%    100.00% # Class of executed instruction
system.cpu.op_class::IprAccess                      0      0.00%    100.00% # Class of executed instruction
system.cpu.op_class::InstPrefetch                   0      0.00%    100.00% # Class of executed instruction
system.cpu.op_class::total                    2366676                       # Class of executed instruction
system.cpu.workload.numSyscalls                    19                       # Number of system calls
system.membus.snoop_filter.hit_multi_requests            0                       # Number of requests hitting in the snoop filter with multiple (>1) holders of the requested data.
system.membus.snoop_filter.hit_multi_snoops            0                       # Number of snoops hitting in the snoop filter with multiple (>1) holders of the requested data.
system.membus.snoop_filter.hit_single_requests            0                       # Number of requests hitting in the snoop filter with a single holder of the requested data.
system.membus.snoop_filter.hit_single_snoops            0                       # Number of snoops hitting in the snoop filter with a single holder of the requested data.
system.membus.snoop_filter.tot_requests             0                       # Total number of requests made to the snoop filter.
system.membus.snoop_filter.tot_snoops               0                       # Total number of snoops made to the snoop filter.
system.membus.trans_dist::ReadReq             3136616                       # Transaction distribution
system.membus.trans_dist::ReadResp            3136615                       # Transaction distribution
system.membus.trans_dist::WriteReq            1725952                       # Transaction distribution
system.membus.trans_dist::WriteResp           1725952                       # Transaction distribution
system.membus.pkt_count_system.cpu.icache_port::system.mem_ctrl.port      6264561                       # Packet count per connected master and slave (bytes)
system.membus.pkt_count_system.cpu.icache_port::total      6264561                       # Packet count per connected master and slave (bytes)
system.membus.pkt_count_system.memobj.mem_side::system.mem_ctrl.port      3460574                       # Packet count per connected master and slave (bytes)
system.membus.pkt_count_system.memobj.mem_side::total      3460574                       # Packet count per connected master and slave (bytes)
system.membus.pkt_count::total                9725135                       # Packet count per connected master and slave (bytes)
system.membus.pkt_size_system.cpu.icache_port::system.mem_ctrl.port     25058240                       # Cumulative packet size per connected master and slave (bytes)
system.membus.pkt_size_system.cpu.icache_port::total     25058240                       # Cumulative packet size per connected master and slave (bytes)
system.membus.pkt_size_system.memobj.mem_side::system.mem_ctrl.port     13487303                       # Cumulative packet size per connected master and slave (bytes)
system.membus.pkt_size_system.memobj.mem_side::total     13487303                       # Cumulative packet size per connected master and slave (bytes)
system.membus.pkt_size::total                38545543                       # Cumulative packet size per connected master and slave (bytes)
system.membus.snoops                                0                       # Total snoops (count)
system.membus.snoopTraffic                          0                       # Total snoop traffic (bytes)
system.membus.snoop_fanout::samples           4862568                       # Request fanout histogram
system.membus.snoop_fanout::mean                    0                       # Request fanout histogram
system.membus.snoop_fanout::stdev                   0                       # Request fanout histogram
system.membus.snoop_fanout::underflows              0      0.00%      0.00% # Request fanout histogram
system.membus.snoop_fanout::0                 4862568    100.00%    100.00% # Request fanout histogram
system.membus.snoop_fanout::1                       0      0.00%    100.00% # Request fanout histogram
system.membus.snoop_fanout::overflows               0      0.00%    100.00% # Request fanout histogram
system.membus.snoop_fanout::min_value               0                       # Request fanout histogram
system.membus.snoop_fanout::max_value               0                       # Request fanout histogram
system.membus.snoop_fanout::total             4862568                       # Request fanout histogram
system.membus.reqLayer2.occupancy          6588520000                       # Layer occupancy (ticks)
system.membus.reqLayer2.utilization               3.3                       # Layer utilization (%)
system.membus.respLayer1.occupancy         1735736000                       # Layer occupancy (ticks)
system.membus.respLayer1.utilization              0.9                       # Layer utilization (%)
system.membus.respLayer0.occupancy         7094249750                       # Layer occupancy (ticks)
system.membus.respLayer0.utilization              3.5                       # Layer utilization (%)
system.membus.power_state.pwrStateResidencyTicks::UNDEFINED 200339021000                       # Cumulative time (in ticks) in various power states
system.mem_ctrl.bytes_read::.cpu.inst        25058240                       # Number of bytes read from this memory
system.mem_ctrl.bytes_read::.cpu.data           27431                       # Number of bytes read from this memory
system.mem_ctrl.bytes_read::total            25085671                       # Number of bytes read from this memory
system.mem_ctrl.bytes_inst_read::.cpu.inst     25058240                       # Number of instructions bytes read from this memory
system.mem_ctrl.bytes_inst_read::total       25058240                       # Number of instructions bytes read from this memory
system.mem_ctrl.bytes_written::.cpu.data     13459872                       # Number of bytes written to this memory
system.mem_ctrl.bytes_written::total         13459872                       # Number of bytes written to this memory
system.mem_ctrl.num_reads::.cpu.inst          3132280                       # Number of read requests responded to by this memory
system.mem_ctrl.num_reads::.cpu.data             4335                       # Number of read requests responded to by this memory
system.mem_ctrl.num_reads::total              3136615                       # Number of read requests responded to by this memory
system.mem_ctrl.num_writes::.cpu.data         1725952                       # Number of write requests responded to by this memory
system.mem_ctrl.num_writes::total             1725952                       # Number of write requests responded to by this memory
system.mem_ctrl.bw_read::.cpu.inst          125079178                       # Total read bandwidth from this memory (bytes/s)
system.mem_ctrl.bw_read::.cpu.data             136923                       # Total read bandwidth from this memory (bytes/s)
system.mem_ctrl.bw_read::total              125216101                       # Total read bandwidth from this memory (bytes/s)
system.mem_ctrl.bw_inst_read::.cpu.inst     125079178                       # Instruction read bandwidth from this memory (bytes/s)
system.mem_ctrl.bw_inst_read::total         125079178                       # Instruction read bandwidth from this memory (bytes/s)
system.mem_ctrl.bw_write::.cpu.data          67185474                       # Write bandwidth from this memory (bytes/s)
system.mem_ctrl.bw_write::total              67185474                       # Write bandwidth from this memory (bytes/s)
system.mem_ctrl.bw_total::.cpu.inst         125079178                       # Total bandwidth to/from this memory (bytes/s)
system.mem_ctrl.bw_total::.cpu.data          67322396                       # Total bandwidth to/from this memory (bytes/s)
system.mem_ctrl.bw_total::total             192401574                       # Total bandwidth to/from this memory (bytes/s)
system.mem_ctrl.avgPriority_.cpu.inst::samples   3132281.00                       # Average QoS priority value for accepted requests
system.mem_ctrl.avgPriority_.cpu.data::samples    221280.00                       # Average QoS priority value for accepted requests
system.mem_ctrl.priorityMinLatency       0.000000018750                       # per QoS priority minimum request to response latency (s)
system.mem_ctrl.priorityMaxLatency       0.002517780500                       # per QoS priority maximum request to response latency (s)
system.mem_ctrl.numReadWriteTurnArounds         13594                       # Number of turnarounds from READ to WRITE
system.mem_ctrl.numWriteReadTurnArounds         13594                       # Number of turnarounds from WRITE to READ
system.mem_ctrl.numStayReadState              8035504                       # Number of times bus staying in READ state
system.mem_ctrl.numStayWriteState              204217                       # Number of times bus staying in WRITE state
system.mem_ctrl.readReqs                      3136616                       # Number of read requests accepted
system.mem_ctrl.writeReqs                     1725952                       # Number of write requests accepted
system.mem_ctrl.readBursts                    3136616                       # Number of DRAM read bursts, including those serviced by the write queue
system.mem_ctrl.writeBursts                   1725952                       # Number of DRAM write bursts, including those merged in the write queue
system.mem_ctrl.servicedByWrQ                     668                       # Number of DRAM read bursts serviced by the write queue
system.mem_ctrl.mergedWrBursts                1508339                       # Number of DRAM write bursts merged with an existing one
system.mem_ctrl.neitherReadNorWriteReqs             0                       # Number of requests that are neither read nor write
system.mem_ctrl.perBankRdBursts::0            3109833                       # Per bank write bursts
system.mem_ctrl.perBankRdBursts::1                965                       # Per bank write bursts
system.mem_ctrl.perBankRdBursts::2                681                       # Per bank write bursts
system.mem_ctrl.perBankRdBursts::3               1127                       # Per bank write bursts
system.mem_ctrl.perBankRdBursts::4               1054                       # Per bank write bursts
system.mem_ctrl.perBankRdBursts::5                514                       # Per bank write bursts
system.mem_ctrl.perBankRdBursts::6                966                       # Per bank write bursts
system.mem_ctrl.perBankRdBursts::7                 24                       # Per bank write bursts
system.mem_ctrl.perBankRdBursts::8                194                       # Per bank write bursts
system.mem_ctrl.perBankRdBursts::9               1580                       # Per bank write bursts
system.mem_ctrl.perBankRdBursts::10               993                       # Per bank write bursts
system.mem_ctrl.perBankRdBursts::11              1826                       # Per bank write bursts
system.mem_ctrl.perBankRdBursts::12              3616                       # Per bank write bursts
system.mem_ctrl.perBankRdBursts::13             10000                       # Per bank write bursts
system.mem_ctrl.perBankRdBursts::14               947                       # Per bank write bursts
system.mem_ctrl.perBankRdBursts::15              1628                       # Per bank write bursts
system.mem_ctrl.perBankWrBursts::0              13551                       # Per bank write bursts
system.mem_ctrl.perBankWrBursts::1              15255                       # Per bank write bursts
system.mem_ctrl.perBankWrBursts::2              13645                       # Per bank write bursts
system.mem_ctrl.perBankWrBursts::3              13440                       # Per bank write bursts
system.mem_ctrl.perBankWrBursts::4              13440                       # Per bank write bursts
system.mem_ctrl.perBankWrBursts::5              13440                       # Per bank write bursts
system.mem_ctrl.perBankWrBursts::6              13440                       # Per bank write bursts
system.mem_ctrl.perBankWrBursts::7              13440                       # Per bank write bursts
system.mem_ctrl.perBankWrBursts::8              13443                       # Per bank write bursts
system.mem_ctrl.perBankWrBursts::9              13509                       # Per bank write bursts
system.mem_ctrl.perBankWrBursts::10             13468                       # Per bank write bursts
system.mem_ctrl.perBankWrBursts::11             13507                       # Per bank write bursts
system.mem_ctrl.perBankWrBursts::12             13461                       # Per bank write bursts
system.mem_ctrl.perBankWrBursts::13             13470                       # Per bank write bursts
system.mem_ctrl.perBankWrBursts::14             13505                       # Per bank write bursts
system.mem_ctrl.perBankWrBursts::15             13568                       # Per bank write bursts
system.mem_ctrl.avgRdQLen                        1.00                       # Average read queue length when enqueuing
system.mem_ctrl.avgWrQLen                       25.58                       # Average write queue length when enqueuing
system.mem_ctrl.totQLat                   10373225000                       # Total ticks spent queuing
system.mem_ctrl.totBusLat                 15679740000                       # Total ticks spent in databus transfers
system.mem_ctrl.totMemAccLat              69172250000                       # Total ticks spent from burst creation until serviced by the DRAM
system.mem_ctrl.avgQLat                       3307.84                       # Average queueing delay per DRAM burst
system.mem_ctrl.avgBusLat                     5000.00                       # Average bus latency per DRAM burst
system.mem_ctrl.avgMemAccLat                 22057.84                       # Average memory access latency per DRAM burst
system.mem_ctrl.numRdRetry                          0                       # Number of times read queue was full causing retry
system.mem_ctrl.numWrRetry                          0                       # Number of times write queue was full causing retry
system.mem_ctrl.readRowHits                   2928584                       # Number of row buffer hits during reads
system.mem_ctrl.writeRowHits                   202291                       # Number of row buffer hits during writes
system.mem_ctrl.readRowHitRate                  93.39                       # Row buffer hit rate for reads
system.mem_ctrl.writeRowHitRate                 92.96                       # Row buffer hit rate for writes
system.mem_ctrl.readPktSize::0                    569                       # Read request sizes (log2)
system.mem_ctrl.readPktSize::1                     34                       # Read request sizes (log2)
system.mem_ctrl.readPktSize::2                    761                       # Read request sizes (log2)
system.mem_ctrl.readPktSize::3                3135252                       # Read request sizes (log2)
system.mem_ctrl.readPktSize::4                      0                       # Read request sizes (log2)
system.mem_ctrl.readPktSize::5                      0                       # Read request sizes (log2)
system.mem_ctrl.readPktSize::6                      0                       # Read request sizes (log2)
system.mem_ctrl.writePktSize::0                   210                       # Write request sizes (log2)
system.mem_ctrl.writePktSize::1                    15                       # Write request sizes (log2)
system.mem_ctrl.writePktSize::2                 86546                       # Write request sizes (log2)
system.mem_ctrl.writePktSize::3               1639181                       # Write request sizes (log2)
system.mem_ctrl.writePktSize::4                     0                       # Write request sizes (log2)
system.mem_ctrl.writePktSize::5                     0                       # Write request sizes (log2)
system.mem_ctrl.writePktSize::6                     0                       # Write request sizes (log2)
system.mem_ctrl.rdQLenPdf::0                  3135933                       # What read queue length does an incoming req see
system.mem_ctrl.rdQLenPdf::1                       15                       # What read queue length does an incoming req see
system.mem_ctrl.rdQLenPdf::2                        0                       # What read queue length does an incoming req see
system.mem_ctrl.rdQLenPdf::3                        0                       # What read queue length does an incoming req see
system.mem_ctrl.rdQLenPdf::4                        0                       # What read queue length does an incoming req see
system.mem_ctrl.rdQLenPdf::5                        0                       # What read queue length does an incoming req see
system.mem_ctrl.rdQLenPdf::6                        0                       # What read queue length does an incoming req see
system.mem_ctrl.rdQLenPdf::7                        0                       # What read queue length does an incoming req see
system.mem_ctrl.rdQLenPdf::8                        0                       # What read queue length does an incoming req see
system.mem_ctrl.rdQLenPdf::9                        0                       # What read queue length does an incoming req see
system.mem_ctrl.rdQLenPdf::10                       0                       # What read queue length does an incoming req see
system.mem_ctrl.rdQLenPdf::11                       0                       # What read queue length does an incoming req see
system.mem_ctrl.rdQLenPdf::12                       0                       # What read queue length does an incoming req see
system.mem_ctrl.rdQLenPdf::13                       0                       # What read queue length does an incoming req see
system.mem_ctrl.rdQLenPdf::14                       0                       # What read queue length does an incoming req see
system.mem_ctrl.rdQLenPdf::15                       0                       # What read queue length does an incoming req see
system.mem_ctrl.rdQLenPdf::16                       0                       # What read queue length does an incoming req see
system.mem_ctrl.rdQLenPdf::17                       0                       # What read queue length does an incoming req see
system.mem_ctrl.rdQLenPdf::18                       0                       # What read queue length does an incoming req see
system.mem_ctrl.rdQLenPdf::19                       0                       # What read queue length does an incoming req see
system.mem_ctrl.rdQLenPdf::20                       0                       # What read queue length does an incoming req see
system.mem_ctrl.rdQLenPdf::21                       0                       # What read queue length does an incoming req see
system.mem_ctrl.rdQLenPdf::22                       0                       # What read queue length does an incoming req see
system.mem_ctrl.rdQLenPdf::23                       0                       # What read queue length does an incoming req see
system.mem_ctrl.rdQLenPdf::24                       0                       # What read queue length does an incoming req see
system.mem_ctrl.rdQLenPdf::25                       0                       # What read queue length does an incoming req see
system.mem_ctrl.rdQLenPdf::26                       0                       # What read queue length does an incoming req see
system.mem_ctrl.rdQLenPdf::27                       0                       # What read queue length does an incoming req see
system.mem_ctrl.rdQLenPdf::28                       0                       # What read queue length does an incoming req see
system.mem_ctrl.rdQLenPdf::29                       0                       # What read queue length does an incoming req see
system.mem_ctrl.rdQLenPdf::30                       0                       # What read queue length does an incoming req see
system.mem_ctrl.rdQLenPdf::31                       0                       # What read queue length does an incoming req see
system.mem_ctrl.wrQLenPdf::0                        1                       # What write queue length does an incoming req see
system.mem_ctrl.wrQLenPdf::1                        1                       # What write queue length does an incoming req see
system.mem_ctrl.wrQLenPdf::2                        1                       # What write queue length does an incoming req see
system.mem_ctrl.wrQLenPdf::3                        1                       # What write queue length does an incoming req see
system.mem_ctrl.wrQLenPdf::4                        1                       # What write queue length does an incoming req see
system.mem_ctrl.wrQLenPdf::5                        1                       # What write queue length does an incoming req see
system.mem_ctrl.wrQLenPdf::6                        1                       # What write queue length does an incoming req see
system.mem_ctrl.wrQLenPdf::7                        1                       # What write queue length does an incoming req see
system.mem_ctrl.wrQLenPdf::8                        1                       # What write queue length does an incoming req see
system.mem_ctrl.wrQLenPdf::9                        1                       # What write queue length does an incoming req see
system.mem_ctrl.wrQLenPdf::10                       1                       # What write queue length does an incoming req see
system.mem_ctrl.wrQLenPdf::11                       1                       # What write queue length does an incoming req see
system.mem_ctrl.wrQLenPdf::12                       1                       # What write queue length does an incoming req see
system.mem_ctrl.wrQLenPdf::13                       1                       # What write queue length does an incoming req see
system.mem_ctrl.wrQLenPdf::14                       1                       # What write queue length does an incoming req see
system.mem_ctrl.wrQLenPdf::15                      40                       # What write queue length does an incoming req see
system.mem_ctrl.wrQLenPdf::16                      40                       # What write queue length does an incoming req see
system.mem_ctrl.wrQLenPdf::17                   13595                       # What write queue length does an incoming req see
system.mem_ctrl.wrQLenPdf::18                   13595                       # What write queue length does an incoming req see
system.mem_ctrl.wrQLenPdf::19                   13595                       # What write queue length does an incoming req see
system.mem_ctrl.wrQLenPdf::20                   13595                       # What write queue length does an incoming req see
system.mem_ctrl.wrQLenPdf::21                   13595                       # What write queue length does an incoming req see
system.mem_ctrl.wrQLenPdf::22                   13595                       # What write queue length does an incoming req see
system.mem_ctrl.wrQLenPdf::23                   13595                       # What write queue length does an incoming req see
system.mem_ctrl.wrQLenPdf::24                   13595                       # What write queue length does an incoming req see
system.mem_ctrl.wrQLenPdf::25                   13595                       # What write queue length does an incoming req see
system.mem_ctrl.wrQLenPdf::26                   13595                       # What write queue length does an incoming req see
system.mem_ctrl.wrQLenPdf::27                   13595                       # What write queue length does an incoming req see
system.mem_ctrl.wrQLenPdf::28                   13595                       # What write queue length does an incoming req see
system.mem_ctrl.wrQLenPdf::29                   13595                       # What write queue length does an incoming req see
system.mem_ctrl.wrQLenPdf::30                   13595                       # What write queue length does an incoming req see
system.mem_ctrl.wrQLenPdf::31                   13594                       # What write queue length does an incoming req see
system.mem_ctrl.wrQLenPdf::32                   13594                       # What write queue length does an incoming req see
system.mem_ctrl.wrQLenPdf::33                       0                       # What write queue length does an incoming req see
system.mem_ctrl.wrQLenPdf::34                       0                       # What write queue length does an incoming req see
system.mem_ctrl.wrQLenPdf::35                       0                       # What write queue length does an incoming req see
system.mem_ctrl.wrQLenPdf::36                       0                       # What write queue length does an incoming req see
system.mem_ctrl.wrQLenPdf::37                       0                       # What write queue length does an incoming req see
system.mem_ctrl.wrQLenPdf::38                       0                       # What write queue length does an incoming req see
system.mem_ctrl.wrQLenPdf::39                       0                       # What write queue length does an incoming req see
system.mem_ctrl.wrQLenPdf::40                       0                       # What write queue length does an incoming req see
system.mem_ctrl.wrQLenPdf::41                       0                       # What write queue length does an incoming req see
system.mem_ctrl.wrQLenPdf::42                       0                       # What write queue length does an incoming req see
system.mem_ctrl.wrQLenPdf::43                       0                       # What write queue length does an incoming req see
system.mem_ctrl.wrQLenPdf::44                       0                       # What write queue length does an incoming req see
system.mem_ctrl.wrQLenPdf::45                       0                       # What write queue length does an incoming req see
system.mem_ctrl.wrQLenPdf::46                       0                       # What write queue length does an incoming req see
system.mem_ctrl.wrQLenPdf::47                       0                       # What write queue length does an incoming req see
system.mem_ctrl.wrQLenPdf::48                       0                       # What write queue length does an incoming req see
system.mem_ctrl.wrQLenPdf::49                       0                       # What write queue length does an incoming req see
system.mem_ctrl.wrQLenPdf::50                       0                       # What write queue length does an incoming req see
system.mem_ctrl.wrQLenPdf::51                       0                       # What write queue length does an incoming req see
system.mem_ctrl.wrQLenPdf::52                       0                       # What write queue length does an incoming req see
system.mem_ctrl.wrQLenPdf::53                       0                       # What write queue length does an incoming req see
system.mem_ctrl.wrQLenPdf::54                       0                       # What write queue length does an incoming req see
system.mem_ctrl.wrQLenPdf::55                       0                       # What write queue length does an incoming req see
system.mem_ctrl.wrQLenPdf::56                       0                       # What write queue length does an incoming req see
system.mem_ctrl.wrQLenPdf::57                       0                       # What write queue length does an incoming req see
system.mem_ctrl.wrQLenPdf::58                       0                       # What write queue length does an incoming req see
system.mem_ctrl.wrQLenPdf::59                       0                       # What write queue length does an incoming req see
system.mem_ctrl.wrQLenPdf::60                       0                       # What write queue length does an incoming req see
system.mem_ctrl.wrQLenPdf::61                       0                       # What write queue length does an incoming req see
system.mem_ctrl.wrQLenPdf::62                       0                       # What write queue length does an incoming req see
system.mem_ctrl.wrQLenPdf::63                       0                       # What write queue length does an incoming req see
system.mem_ctrl.bytesPerActivate::samples       222654                       # Bytes accessed per row activation
system.mem_ctrl.bytesPerActivate::mean     963.941398                       # Bytes accessed per row activation
system.mem_ctrl.bytesPerActivate::gmean    939.968556                       # Bytes accessed per row activation
system.mem_ctrl.bytesPerActivate::stdev    160.433125                       # Bytes accessed per row activation
system.mem_ctrl.bytesPerActivate::0-127           515      0.23%      0.23% # Bytes accessed per row activation
system.mem_ctrl.bytesPerActivate::128-255         1272      0.57%      0.80% # Bytes accessed per row activation
system.mem_ctrl.bytesPerActivate::256-383          989      0.44%      1.25% # Bytes accessed per row activation
system.mem_ctrl.bytesPerActivate::384-511          719      0.32%      1.57% # Bytes accessed per row activation
system.mem_ctrl.bytesPerActivate::512-639         9274      4.17%      5.73% # Bytes accessed per row activation
system.mem_ctrl.bytesPerActivate::640-767        15960      7.17%     12.90% # Bytes accessed per row activation
system.mem_ctrl.bytesPerActivate::768-895         1339      0.60%     13.50% # Bytes accessed per row activation
system.mem_ctrl.bytesPerActivate::896-1023          898      0.40%     13.91% # Bytes accessed per row activation
system.mem_ctrl.bytesPerActivate::1024-1151       191688     86.09%    100.00% # Bytes accessed per row activation
system.mem_ctrl.bytesPerActivate::total        222654                       # Bytes accessed per row activation
system.mem_ctrl.rdPerTurnAround::samples        13594                       # Reads before turning the bus around for writes
system.mem_ctrl.rdPerTurnAround::mean      230.672944                       # Reads before turning the bus around for writes
system.mem_ctrl.rdPerTurnAround::gmean     228.930240                       # Reads before turning the bus around for writes
system.mem_ctrl.rdPerTurnAround::stdev     159.304346                       # Reads before turning the bus around for writes
system.mem_ctrl.rdPerTurnAround::0-1023         13590     99.97%     99.97% # Reads before turning the bus around for writes
system.mem_ctrl.rdPerTurnAround::1024-2047            3      0.02%     99.99% # Reads before turning the bus around for writes
system.mem_ctrl.rdPerTurnAround::18432-19455            1      0.01%    100.00% # Reads before turning the bus around for writes
system.mem_ctrl.rdPerTurnAround::total          13594                       # Reads before turning the bus around for writes
system.mem_ctrl.wrPerTurnAround::samples        13594                       # Writes before turning the bus around for reads
system.mem_ctrl.wrPerTurnAround::mean       16.005738                       # Writes before turning the bus around for reads
system.mem_ctrl.wrPerTurnAround::gmean      16.005407                       # Writes before turning the bus around for reads
system.mem_ctrl.wrPerTurnAround::stdev       0.106975                       # Writes before turning the bus around for reads
system.mem_ctrl.wrPerTurnAround::16             13555     99.71%     99.71% # Writes before turning the bus around for reads
system.mem_ctrl.wrPerTurnAround::18                39      0.29%    100.00% # Writes before turning the bus around for reads
system.mem_ctrl.wrPerTurnAround::total          13594                       # Writes before turning the bus around for reads
system.mem_ctrl.bytesReadDRAM               200700672                       # Total number of bytes read from DRAM
system.mem_ctrl.bytesReadWrQ                    42752                       # Total number of bytes read from write queue
system.mem_ctrl.bytesWritten                 13925248                       # Total number of bytes written to DRAM
system.mem_ctrl.bytesReadSys                 25085679                       # Total read bytes from the system interface side
system.mem_ctrl.bytesWrittenSys              13459872                       # Total written bytes from the system interface side
system.mem_ctrl.avgRdBW                       1001.81                       # Average DRAM read bandwidth in MiByte/s
system.mem_ctrl.avgWrBW                         69.51                       # Average achieved write bandwidth in MiByte/s
system.mem_ctrl.avgRdBWSys                     125.22                       # Average system read bandwidth in MiByte/s
system.mem_ctrl.avgWrBWSys                      67.19                       # Average system write bandwidth in MiByte/s
system.mem_ctrl.peakBW                       12800.00                       # Theoretical peak bandwidth in MiByte/s
system.mem_ctrl.busUtil                          8.37                       # Data bus utilization in percentage
system.mem_ctrl.busUtilRead                      7.83                       # Data bus utilization in percentage for reads
system.mem_ctrl.busUtilWrite                     0.54                       # Data bus utilization in percentage for writes
system.mem_ctrl.totGap                   200338944000                       # Total gap between requests
system.mem_ctrl.avgGap                       41200.23                       # Average gap between requests
system.mem_ctrl.masterReadBytes::.cpu.inst     25058248                       # Per-master bytes read from memory
system.mem_ctrl.masterReadBytes::.cpu.data        23561                       # Per-master bytes read from memory
system.mem_ctrl.masterWriteBytes::.cpu.data      1395933                       # Per-master bytes write to memory
system.mem_ctrl.masterReadRate::.cpu.inst 125079217.592862248421                       # Per-master bytes read from memory rate (Bytes/sec)
system.mem_ctrl.masterReadRate::.cpu.data 117605.646081299361                       # Per-master bytes read from memory rate (Bytes/sec)
system.mem_ctrl.masterWriteRate::.cpu.data 6967853.756258497015                       # Per-master bytes write to memory rate (Bytes/sec)
system.mem_ctrl.masterReadAccesses::.cpu.inst      3132281                       # Per-master read serviced memory accesses
system.mem_ctrl.masterReadAccesses::.cpu.data         4335                       # Per-master read serviced memory accesses
system.mem_ctrl.masterWriteAccesses::.cpu.data      1725952                       # Per-master write serviced memory accesses
system.mem_ctrl.masterReadTotalLat::.cpu.inst  69085499000                       # Per-master read total memory access latency
system.mem_ctrl.masterReadTotalLat::.cpu.data     86751000                       # Per-master read total memory access latency
system.mem_ctrl.masterWriteTotalLat::.cpu.data 4932360790500                       # Per-master write total memory access latency
system.mem_ctrl.masterReadAvgLat::.cpu.inst     22055.97                       # Per-master read average memory access latency
system.mem_ctrl.masterReadAvgLat::.cpu.data     20011.76                       # Per-master read average memory access latency
system.mem_ctrl.masterWriteAvgLat::.cpu.data   2857762.44                       # Per-master write average memory access latency
system.mem_ctrl.pageHitRate                     93.36                       # Row buffer hit rate, read and write combined
system.mem_ctrl.rank1.actEnergy              67273080                       # Energy for activate commands per rank (pJ)
system.mem_ctrl.rank1.preEnergy              35756490                       # Energy for precharge commands per rank (pJ)
system.mem_ctrl.rank1.readEnergy            148397760                       # Energy for read commands per rank (pJ)
system.mem_ctrl.rank1.writeEnergy           563399820                       # Energy for write commands per rank (pJ)
system.mem_ctrl.rank1.refreshEnergy      15814072560.000002                       # Energy for refresh commands per rank (pJ)
system.mem_ctrl.rank1.actBackEnergy        5701213530                       # Energy for active background per rank (pJ)
system.mem_ctrl.rank1.preBackEnergy       72129162240                       # Energy for precharge background per rank (pJ)
system.mem_ctrl.rank1.actPowerDownEnergy            0                       # Energy for active power-down per rank (pJ)
system.mem_ctrl.rank1.prePowerDownEnergy            0                       # Energy for precharge power-down per rank (pJ)
system.mem_ctrl.rank1.selfRefreshEnergy             0                       # Energy for self refresh per rank (pJ)
system.mem_ctrl.rank1.totalEnergy         94459275480                       # Total energy per rank (pJ)
system.mem_ctrl.rank1.averagePower         471.497140                       # Core power per rank (mW)
system.mem_ctrl.rank1.totalIdleTime                 0                       # Total Idle time Per DRAM Rank
system.mem_ctrl.rank1.memoryStateTime::IDLE 187383262750                       # Time in different power states
system.mem_ctrl.rank1.memoryStateTime::REF   6689540000                       # Time in different power states
system.mem_ctrl.rank1.memoryStateTime::SREF            0                       # Time in different power states
system.mem_ctrl.rank1.memoryStateTime::PRE_PDN            0                       # Time in different power states
system.mem_ctrl.rank1.memoryStateTime::ACT   6266218250                       # Time in different power states
system.mem_ctrl.rank1.memoryStateTime::ACT_PDN            0                       # Time in different power states
system.mem_ctrl.rank0.actEnergy            1522483620                       # Energy for activate commands per rank (pJ)
system.mem_ctrl.rank0.preEnergy             809215440                       # Energy for precharge commands per rank (pJ)
system.mem_ctrl.rank0.readEnergy          22242270960                       # Energy for read commands per rank (pJ)
system.mem_ctrl.rank0.writeEnergy           572378220                       # Energy for write commands per rank (pJ)
system.mem_ctrl.rank0.refreshEnergy      15814072560.000002                       # Energy for refresh commands per rank (pJ)
system.mem_ctrl.rank0.actBackEnergy       86592819390                       # Energy for active background per rank (pJ)
system.mem_ctrl.rank0.preBackEnergy        4009915200                       # Energy for precharge background per rank (pJ)
system.mem_ctrl.rank0.actPowerDownEnergy            0                       # Energy for active power-down per rank (pJ)
system.mem_ctrl.rank0.prePowerDownEnergy            0                       # Energy for precharge power-down per rank (pJ)
system.mem_ctrl.rank0.selfRefreshEnergy             0                       # Energy for self refresh per rank (pJ)
system.mem_ctrl.rank0.totalEnergy        131563155390                       # Total energy per rank (pJ)
system.mem_ctrl.rank0.averagePower         656.702597                       # Core power per rank (mW)
system.mem_ctrl.rank0.totalIdleTime                 0                       # Total Idle time Per DRAM Rank
system.mem_ctrl.rank0.memoryStateTime::IDLE   7296393250                       # Time in different power states
system.mem_ctrl.rank0.memoryStateTime::REF   6689540000                       # Time in different power states
system.mem_ctrl.rank0.memoryStateTime::SREF            0                       # Time in different power states
system.mem_ctrl.rank0.memoryStateTime::PRE_PDN            0                       # Time in different power states
system.mem_ctrl.rank0.memoryStateTime::ACT 186353087750                       # Time in different power states
system.mem_ctrl.rank0.memoryStateTime::ACT_PDN            0                       # Time in different power states
system.mem_ctrl.power_state.pwrStateResidencyTicks::UNDEFINED 200339021000                       # Cumulative time (in ticks) in various power states
system.cache.blocked_cycles::no_mshrs               0                       # number of cycles access was blocked
system.cache.blocked_cycles::no_targets             0                       # number of cycles access was blocked
system.cache.blocked::no_mshrs                      0                       # number of cycles access was blocked
system.cache.blocked::no_targets                    0                       # number of cycles access was blocked
system.cache.avg_blocked_cycles::no_mshrs          nan                       # average number of cycles each access was blocked
system.cache.avg_blocked_cycles::no_targets          nan                       # average number of cycles each access was blocked
system.cache.replacements                           0                       # number of replacements
system.cache.power_state.pwrStateResidencyTicks::UNDEFINED 200339021000                       # Cumulative time (in ticks) in various power states
system.cache.tags.tagsinuse                         0                       # Cycle average of tags in use
system.cache.tags.total_refs                        0                       # Total number of references to valid blocks.
system.cache.tags.sampled_refs                      0                       # Sample count of references to valid blocks.
system.cache.tags.avg_refs                        nan                       # Average number of references to valid blocks.
system.cache.tags.warmup_cycle                      0                       # Cycle when the warmup percentage was hit.
system.cache.tags.tag_accesses                      0                       # Number of tag accesses
system.cache.tags.data_accesses                     0                       # Number of data accesses
system.cache.tags.power_state.pwrStateResidencyTicks::UNDEFINED 200339021000                       # Cumulative time (in ticks) in various power states
system.clk_domain.clock                          1000                       # Clock period in ticks
system.clk_domain.voltage_domain.voltage            1                       # Voltage in Volts
system.cachebus.snoops                              0                       # Total snoops (count)
system.cachebus.snoopTraffic                        0                       # Total snoop traffic (bytes)
system.cachebus.snoop_fanout::samples               0                       # Request fanout histogram
system.cachebus.snoop_fanout::mean                nan                       # Request fanout histogram
system.cachebus.snoop_fanout::stdev               nan                       # Request fanout histogram
system.cachebus.snoop_fanout::underflows            0                       # Request fanout histogram
system.cachebus.snoop_fanout::0                     0                       # Request fanout histogram
system.cachebus.snoop_fanout::overflows             0                       # Request fanout histogram
system.cachebus.snoop_fanout::min_value             0                       # Request fanout histogram
system.cachebus.snoop_fanout::max_value             0                       # Request fanout histogram
system.cachebus.snoop_fanout::total                 0                       # Request fanout histogram
system.cachebus.power_state.pwrStateResidencyTicks::UNDEFINED 200339021000                       # Cumulative time (in ticks) in various power states
system.cpu.dtb.walker.power_state.pwrStateResidencyTicks::UNDEFINED 200339021000                       # Cumulative time (in ticks) in various power states
system.cpu.interrupts.clk_domain.clock          16000                       # Clock period in ticks
system.cpu.itb.walker.power_state.pwrStateResidencyTicks::UNDEFINED 200339021000                       # Cumulative time (in ticks) in various power states
system.cpu.power_state.numTransitions               1                       # Number of power state transitions
system.cpu.power_state.pwrStateResidencyTicks::ON 200339021000                       # Cumulative time (in ticks) in various power states

---------- End Simulation Statistics   ----------
