
---------- Begin Simulation Statistics ----------
final_tick                                 6542537000                       # Number of ticks from beginning of simulation (restored from checkpoints and never reset)
host_inst_rate                                  78088                       # Simulator instruction rate (inst/s)
host_mem_usage                               34217468                       # Number of bytes of host memory used
host_op_rate                                   130283                       # Simulator op (including micro ops) rate (op/s)
host_seconds                                    12.81                       # Real time elapsed on the host
host_tick_rate                              510851890                       # Simulator tick rate (ticks/s)
sim_freq                                 1000000000000                       # Frequency of simulated ticks
sim_insts                                     1000050                       # Number of instructions simulated
sim_ops                                       1668544                       # Number of ops (including micro ops) simulated
sim_seconds                                  0.006543                       # Number of seconds simulated
sim_ticks                                  6542537000                       # Number of ticks simulated
system.cpu.Branches                            148314                       # Number of branches fetched
system.cpu.committedInsts                     1000050                       # Number of instructions committed
system.cpu.committedOps                       1668544                       # Number of ops (including micro ops) committed
system.cpu.dtb.rdAccesses                      161924                       # TLB accesses on read requests
system.cpu.dtb.rdMisses                            44                       # TLB misses on read requests
system.cpu.dtb.wrAccesses                      367258                       # TLB accesses on write requests
system.cpu.dtb.wrMisses                          1070                       # TLB misses on write requests
system.cpu.idle_fraction                            0                       # Percentage of idle cycles
system.cpu.itb.rdAccesses                           0                       # TLB accesses on read requests
system.cpu.itb.rdMisses                             0                       # TLB misses on read requests
system.cpu.itb.wrAccesses                     1335853                       # TLB accesses on write requests
system.cpu.itb.wrMisses                            84                       # TLB misses on write requests
system.cpu.not_idle_fraction                        1                       # Percentage of non-idle cycles
system.cpu.numCycles                          6542526                       # number of cpu cycles simulated
system.cpu.numWorkItemsCompleted                    0                       # number of work items this cpu completed
system.cpu.numWorkItemsStarted                      0                       # number of work items this cpu started
system.cpu.num_busy_cycles                    6542526                       # Number of busy cycles
system.cpu.num_cc_register_reads               897152                       # number of times the CC registers were read
system.cpu.num_cc_register_writes              778518                       # number of times the CC registers were written
system.cpu.num_conditional_control_insts       111281                       # number of instructions that are conditional controls
system.cpu.num_fp_alu_accesses                 271916                       # Number of float alu accesses
system.cpu.num_fp_insts                        271916                       # number of float instructions
system.cpu.num_fp_register_reads               268592                       # number of times the floating registers were read
system.cpu.num_fp_register_writes                7053                       # number of times the floating registers were written
system.cpu.num_func_calls                       32285                       # number of times a function call or return occured
system.cpu.num_idle_cycles                          0                       # Number of idle cycles
system.cpu.num_int_alu_accesses               1663090                       # Number of integer alu accesses
system.cpu.num_int_insts                      1663090                       # number of integer instructions
system.cpu.num_int_register_reads             3550379                       # number of times the integer registers were read
system.cpu.num_int_register_writes            1145575                       # number of times the integer registers were written
system.cpu.num_load_insts                      161898                       # Number of load instructions
system.cpu.num_mem_refs                        529154                       # number of memory refs
system.cpu.num_store_insts                     367256                       # Number of store instructions
system.cpu.num_vec_alu_accesses                     0                       # Number of vector alu accesses
system.cpu.num_vec_insts                            0                       # number of vector instructions
system.cpu.num_vec_register_reads                   0                       # number of times the vector registers were read
system.cpu.num_vec_register_writes                  0                       # number of times the vector registers were written
system.cpu.op_class::No_OpClass                   924      0.06%      0.06% # Class of executed instruction
system.cpu.op_class::IntAlu                   1133677     67.92%     67.98% # Class of executed instruction
system.cpu.op_class::IntMult                       10      0.00%     67.98% # Class of executed instruction
system.cpu.op_class::IntDiv                        21      0.00%     67.98% # Class of executed instruction
system.cpu.op_class::FloatAdd                    3232      0.19%     68.17% # Class of executed instruction
system.cpu.op_class::FloatCmp                       0      0.00%     68.17% # Class of executed instruction
system.cpu.op_class::FloatCvt                       0      0.00%     68.17% # Class of executed instruction
system.cpu.op_class::FloatMult                      0      0.00%     68.17% # Class of executed instruction
system.cpu.op_class::FloatMultAcc                   0      0.00%     68.17% # Class of executed instruction
system.cpu.op_class::FloatDiv                       0      0.00%     68.17% # Class of executed instruction
system.cpu.op_class::FloatMisc                      0      0.00%     68.17% # Class of executed instruction
system.cpu.op_class::FloatSqrt                      0      0.00%     68.17% # Class of executed instruction
system.cpu.op_class::SimdAdd                       16      0.00%     68.17% # Class of executed instruction
system.cpu.op_class::SimdAddAcc                     0      0.00%     68.17% # Class of executed instruction
system.cpu.op_class::SimdAlu                      842      0.05%     68.22% # Class of executed instruction
system.cpu.op_class::SimdCmp                        0      0.00%     68.22% # Class of executed instruction
system.cpu.op_class::SimdCvt                      302      0.02%     68.24% # Class of executed instruction
system.cpu.op_class::SimdMisc                     483      0.03%     68.27% # Class of executed instruction
system.cpu.op_class::SimdMult                       0      0.00%     68.27% # Class of executed instruction
system.cpu.op_class::SimdMultAcc                    0      0.00%     68.27% # Class of executed instruction
system.cpu.op_class::SimdShift                      0      0.00%     68.27% # Class of executed instruction
system.cpu.op_class::SimdShiftAcc                   0      0.00%     68.27% # Class of executed instruction
system.cpu.op_class::SimdDiv                        0      0.00%     68.27% # Class of executed instruction
system.cpu.op_class::SimdSqrt                       0      0.00%     68.27% # Class of executed instruction
system.cpu.op_class::SimdFloatAdd                   0      0.00%     68.27% # Class of executed instruction
system.cpu.op_class::SimdFloatAlu                   0      0.00%     68.27% # Class of executed instruction
system.cpu.op_class::SimdFloatCmp                   0      0.00%     68.27% # Class of executed instruction
system.cpu.op_class::SimdFloatCvt                 274      0.02%     68.29% # Class of executed instruction
system.cpu.op_class::SimdFloatDiv                   0      0.00%     68.29% # Class of executed instruction
system.cpu.op_class::SimdFloatMisc                  0      0.00%     68.29% # Class of executed instruction
system.cpu.op_class::SimdFloatMult                137      0.01%     68.30% # Class of executed instruction
system.cpu.op_class::SimdFloatMultAcc               0      0.00%     68.30% # Class of executed instruction
system.cpu.op_class::SimdFloatSqrt                  0      0.00%     68.30% # Class of executed instruction
system.cpu.op_class::SimdReduceAdd                  0      0.00%     68.30% # Class of executed instruction
system.cpu.op_class::SimdReduceAlu                  0      0.00%     68.30% # Class of executed instruction
system.cpu.op_class::SimdReduceCmp                  0      0.00%     68.30% # Class of executed instruction
system.cpu.op_class::SimdFloatReduceAdd             0      0.00%     68.30% # Class of executed instruction
system.cpu.op_class::SimdFloatReduceCmp             0      0.00%     68.30% # Class of executed instruction
system.cpu.op_class::SimdAes                        0      0.00%     68.30% # Class of executed instruction
system.cpu.op_class::SimdAesMix                     0      0.00%     68.30% # Class of executed instruction
system.cpu.op_class::SimdSha1Hash                   0      0.00%     68.30% # Class of executed instruction
system.cpu.op_class::SimdSha1Hash2                  0      0.00%     68.30% # Class of executed instruction
system.cpu.op_class::SimdSha256Hash                 0      0.00%     68.30% # Class of executed instruction
system.cpu.op_class::SimdSha256Hash2                0      0.00%     68.30% # Class of executed instruction
system.cpu.op_class::SimdShaSigma2                  0      0.00%     68.30% # Class of executed instruction
system.cpu.op_class::SimdShaSigma3                  0      0.00%     68.30% # Class of executed instruction
system.cpu.op_class::SimdPredAlu                    0      0.00%     68.30% # Class of executed instruction
system.cpu.op_class::MemRead                   159718      9.57%     77.87% # Class of executed instruction
system.cpu.op_class::MemWrite                  102820      6.16%     84.03% # Class of executed instruction
system.cpu.op_class::FloatMemRead                2180      0.13%     84.16% # Class of executed instruction
system.cpu.op_class::FloatMemWrite             264436     15.84%    100.00% # Class of executed instruction
system.cpu.op_class::IprAccess                      0      0.00%    100.00% # Class of executed instruction
system.cpu.op_class::InstPrefetch                   0      0.00%    100.00% # Class of executed instruction
system.cpu.op_class::total                    1669072                       # Class of executed instruction
system.cpu.workload.numSyscalls                    10                       # Number of system calls
system.dynamic_cache.flushTicks                     0                       # Ticks taken to flush
system.dynamic_cache.numFlushes                     0                       # Number of Flushes Taken
system.cache_small.demand_hits::.cpu.inst         1387                       # number of demand (read+write) hits
system.cache_small.demand_hits::.cpu.data         1224                       # number of demand (read+write) hits
system.cache_small.demand_hits::total            2611                       # number of demand (read+write) hits
system.cache_small.overall_hits::.cpu.inst         1387                       # number of overall hits
system.cache_small.overall_hits::.cpu.data         1224                       # number of overall hits
system.cache_small.overall_hits::total           2611                       # number of overall hits
system.cache_small.demand_misses::.cpu.inst          794                       # number of demand (read+write) misses
system.cache_small.demand_misses::.cpu.data        34404                       # number of demand (read+write) misses
system.cache_small.demand_misses::total         35198                       # number of demand (read+write) misses
system.cache_small.overall_misses::.cpu.inst          794                       # number of overall misses
system.cache_small.overall_misses::.cpu.data        34404                       # number of overall misses
system.cache_small.overall_misses::total        35198                       # number of overall misses
system.cache_small.demand_miss_latency::.cpu.inst     48978000                       # number of demand (read+write) miss cycles
system.cache_small.demand_miss_latency::.cpu.data   2083765000                       # number of demand (read+write) miss cycles
system.cache_small.demand_miss_latency::total   2132743000                       # number of demand (read+write) miss cycles
system.cache_small.overall_miss_latency::.cpu.inst     48978000                       # number of overall miss cycles
system.cache_small.overall_miss_latency::.cpu.data   2083765000                       # number of overall miss cycles
system.cache_small.overall_miss_latency::total   2132743000                       # number of overall miss cycles
system.cache_small.demand_accesses::.cpu.inst         2181                       # number of demand (read+write) accesses
system.cache_small.demand_accesses::.cpu.data        35628                       # number of demand (read+write) accesses
system.cache_small.demand_accesses::total        37809                       # number of demand (read+write) accesses
system.cache_small.overall_accesses::.cpu.inst         2181                       # number of overall (read+write) accesses
system.cache_small.overall_accesses::.cpu.data        35628                       # number of overall (read+write) accesses
system.cache_small.overall_accesses::total        37809                       # number of overall (read+write) accesses
system.cache_small.demand_miss_rate::.cpu.inst     0.364053                       # miss rate for demand accesses
system.cache_small.demand_miss_rate::.cpu.data     0.965645                       # miss rate for demand accesses
system.cache_small.demand_miss_rate::total     0.930942                       # miss rate for demand accesses
system.cache_small.overall_miss_rate::.cpu.inst     0.364053                       # miss rate for overall accesses
system.cache_small.overall_miss_rate::.cpu.data     0.965645                       # miss rate for overall accesses
system.cache_small.overall_miss_rate::total     0.930942                       # miss rate for overall accesses
system.cache_small.demand_avg_miss_latency::.cpu.inst 61685.138539                       # average overall miss latency
system.cache_small.demand_avg_miss_latency::.cpu.data 60567.521218                       # average overall miss latency
system.cache_small.demand_avg_miss_latency::total 60592.732542                       # average overall miss latency
system.cache_small.overall_avg_miss_latency::.cpu.inst 61685.138539                       # average overall miss latency
system.cache_small.overall_avg_miss_latency::.cpu.data 60567.521218                       # average overall miss latency
system.cache_small.overall_avg_miss_latency::total 60592.732542                       # average overall miss latency
system.cache_small.blocked_cycles::no_mshrs            0                       # number of cycles access was blocked
system.cache_small.blocked_cycles::no_targets            0                       # number of cycles access was blocked
system.cache_small.blocked::no_mshrs                0                       # number of cycles access was blocked
system.cache_small.blocked::no_targets              0                       # number of cycles access was blocked
system.cache_small.avg_blocked_cycles::no_mshrs          nan                       # average number of cycles each access was blocked
system.cache_small.avg_blocked_cycles::no_targets          nan                       # average number of cycles each access was blocked
system.cache_small.writebacks::.writebacks        26106                       # number of writebacks
system.cache_small.writebacks::total            26106                       # number of writebacks
system.cache_small.demand_mshr_misses::.cpu.inst          794                       # number of demand (read+write) MSHR misses
system.cache_small.demand_mshr_misses::.cpu.data        34404                       # number of demand (read+write) MSHR misses
system.cache_small.demand_mshr_misses::total        35198                       # number of demand (read+write) MSHR misses
system.cache_small.overall_mshr_misses::.cpu.inst          794                       # number of overall MSHR misses
system.cache_small.overall_mshr_misses::.cpu.data        34404                       # number of overall MSHR misses
system.cache_small.overall_mshr_misses::total        35198                       # number of overall MSHR misses
system.cache_small.demand_mshr_miss_latency::.cpu.inst     47390000                       # number of demand (read+write) MSHR miss cycles
system.cache_small.demand_mshr_miss_latency::.cpu.data   2014957000                       # number of demand (read+write) MSHR miss cycles
system.cache_small.demand_mshr_miss_latency::total   2062347000                       # number of demand (read+write) MSHR miss cycles
system.cache_small.overall_mshr_miss_latency::.cpu.inst     47390000                       # number of overall MSHR miss cycles
system.cache_small.overall_mshr_miss_latency::.cpu.data   2014957000                       # number of overall MSHR miss cycles
system.cache_small.overall_mshr_miss_latency::total   2062347000                       # number of overall MSHR miss cycles
system.cache_small.demand_mshr_miss_rate::.cpu.inst     0.364053                       # mshr miss rate for demand accesses
system.cache_small.demand_mshr_miss_rate::.cpu.data     0.965645                       # mshr miss rate for demand accesses
system.cache_small.demand_mshr_miss_rate::total     0.930942                       # mshr miss rate for demand accesses
system.cache_small.overall_mshr_miss_rate::.cpu.inst     0.364053                       # mshr miss rate for overall accesses
system.cache_small.overall_mshr_miss_rate::.cpu.data     0.965645                       # mshr miss rate for overall accesses
system.cache_small.overall_mshr_miss_rate::total     0.930942                       # mshr miss rate for overall accesses
system.cache_small.demand_avg_mshr_miss_latency::.cpu.inst 59685.138539                       # average overall mshr miss latency
system.cache_small.demand_avg_mshr_miss_latency::.cpu.data 58567.521218                       # average overall mshr miss latency
system.cache_small.demand_avg_mshr_miss_latency::total 58592.732542                       # average overall mshr miss latency
system.cache_small.overall_avg_mshr_miss_latency::.cpu.inst 59685.138539                       # average overall mshr miss latency
system.cache_small.overall_avg_mshr_miss_latency::.cpu.data 58567.521218                       # average overall mshr miss latency
system.cache_small.overall_avg_mshr_miss_latency::total 58592.732542                       # average overall mshr miss latency
system.cache_small.replacements                 27269                       # number of replacements
system.cache_small.ReadReq_hits::.cpu.inst         1387                       # number of ReadReq hits
system.cache_small.ReadReq_hits::.cpu.data         1224                       # number of ReadReq hits
system.cache_small.ReadReq_hits::total           2611                       # number of ReadReq hits
system.cache_small.ReadReq_misses::.cpu.inst          794                       # number of ReadReq misses
system.cache_small.ReadReq_misses::.cpu.data        34404                       # number of ReadReq misses
system.cache_small.ReadReq_misses::total        35198                       # number of ReadReq misses
system.cache_small.ReadReq_miss_latency::.cpu.inst     48978000                       # number of ReadReq miss cycles
system.cache_small.ReadReq_miss_latency::.cpu.data   2083765000                       # number of ReadReq miss cycles
system.cache_small.ReadReq_miss_latency::total   2132743000                       # number of ReadReq miss cycles
system.cache_small.ReadReq_accesses::.cpu.inst         2181                       # number of ReadReq accesses(hits+misses)
system.cache_small.ReadReq_accesses::.cpu.data        35628                       # number of ReadReq accesses(hits+misses)
system.cache_small.ReadReq_accesses::total        37809                       # number of ReadReq accesses(hits+misses)
system.cache_small.ReadReq_miss_rate::.cpu.inst     0.364053                       # miss rate for ReadReq accesses
system.cache_small.ReadReq_miss_rate::.cpu.data     0.965645                       # miss rate for ReadReq accesses
system.cache_small.ReadReq_miss_rate::total     0.930942                       # miss rate for ReadReq accesses
system.cache_small.ReadReq_avg_miss_latency::.cpu.inst 61685.138539                       # average ReadReq miss latency
system.cache_small.ReadReq_avg_miss_latency::.cpu.data 60567.521218                       # average ReadReq miss latency
system.cache_small.ReadReq_avg_miss_latency::total 60592.732542                       # average ReadReq miss latency
system.cache_small.ReadReq_mshr_misses::.cpu.inst          794                       # number of ReadReq MSHR misses
system.cache_small.ReadReq_mshr_misses::.cpu.data        34404                       # number of ReadReq MSHR misses
system.cache_small.ReadReq_mshr_misses::total        35198                       # number of ReadReq MSHR misses
system.cache_small.ReadReq_mshr_miss_latency::.cpu.inst     47390000                       # number of ReadReq MSHR miss cycles
system.cache_small.ReadReq_mshr_miss_latency::.cpu.data   2014957000                       # number of ReadReq MSHR miss cycles
system.cache_small.ReadReq_mshr_miss_latency::total   2062347000                       # number of ReadReq MSHR miss cycles
system.cache_small.ReadReq_mshr_miss_rate::.cpu.inst     0.364053                       # mshr miss rate for ReadReq accesses
system.cache_small.ReadReq_mshr_miss_rate::.cpu.data     0.965645                       # mshr miss rate for ReadReq accesses
system.cache_small.ReadReq_mshr_miss_rate::total     0.930942                       # mshr miss rate for ReadReq accesses
system.cache_small.ReadReq_avg_mshr_miss_latency::.cpu.inst 59685.138539                       # average ReadReq mshr miss latency
system.cache_small.ReadReq_avg_mshr_miss_latency::.cpu.data 58567.521218                       # average ReadReq mshr miss latency
system.cache_small.ReadReq_avg_mshr_miss_latency::total 58592.732542                       # average ReadReq mshr miss latency
system.cache_small.WritebackDirty_hits::.writebacks        34505                       # number of WritebackDirty hits
system.cache_small.WritebackDirty_hits::total        34505                       # number of WritebackDirty hits
system.cache_small.WritebackDirty_accesses::.writebacks        34505                       # number of WritebackDirty accesses(hits+misses)
system.cache_small.WritebackDirty_accesses::total        34505                       # number of WritebackDirty accesses(hits+misses)
system.cache_small.power_state.pwrStateResidencyTicks::UNDEFINED   6542537000                       # Cumulative time (in ticks) in various power states
system.cache_small.tags.tagsinuse         6694.178703                       # Cycle average of tags in use
system.cache_small.tags.total_refs              53730                       # Total number of references to valid blocks.
system.cache_small.tags.sampled_refs            27269                       # Sample count of references to valid blocks.
system.cache_small.tags.avg_refs             1.970369                       # Average number of references to valid blocks.
system.cache_small.tags.warmup_cycle            76000                       # Cycle when the warmup percentage was hit.
system.cache_small.tags.occ_blocks::.writebacks    35.733575                       # Average occupied blocks per requestor
system.cache_small.tags.occ_blocks::.cpu.inst   142.043513                       # Average occupied blocks per requestor
system.cache_small.tags.occ_blocks::.cpu.data  6516.401615                       # Average occupied blocks per requestor
system.cache_small.tags.occ_percent::.writebacks     0.004362                       # Average percentage of cache occupancy
system.cache_small.tags.occ_percent::.cpu.inst     0.017339                       # Average percentage of cache occupancy
system.cache_small.tags.occ_percent::.cpu.data     0.795459                       # Average percentage of cache occupancy
system.cache_small.tags.occ_percent::total     0.817160                       # Average percentage of cache occupancy
system.cache_small.tags.occ_task_id_blocks::1024         8192                       # Occupied blocks per task id
system.cache_small.tags.age_task_id_blocks_1024::2          199                       # Occupied blocks per task id
system.cache_small.tags.age_task_id_blocks_1024::3         7993                       # Occupied blocks per task id
system.cache_small.tags.occ_task_id_percent::1024            1                       # Percentage of cache occupancy per task id
system.cache_small.tags.tag_accesses           107775                       # Number of tag accesses
system.cache_small.tags.data_accesses          107775                       # Number of data accesses
system.cache_small.tags.power_state.pwrStateResidencyTicks::UNDEFINED   6542537000                       # Cumulative time (in ticks) in various power states
system.icache.demand_hits::.cpu.inst          1330368                       # number of demand (read+write) hits
system.icache.demand_hits::total              1330368                       # number of demand (read+write) hits
system.icache.overall_hits::.cpu.inst         1330368                       # number of overall hits
system.icache.overall_hits::total             1330368                       # number of overall hits
system.icache.demand_misses::.cpu.inst           5485                       # number of demand (read+write) misses
system.icache.demand_misses::total               5485                       # number of demand (read+write) misses
system.icache.overall_misses::.cpu.inst          5485                       # number of overall misses
system.icache.overall_misses::total              5485                       # number of overall misses
system.icache.demand_miss_latency::.cpu.inst    138438000                       # number of demand (read+write) miss cycles
system.icache.demand_miss_latency::total    138438000                       # number of demand (read+write) miss cycles
system.icache.overall_miss_latency::.cpu.inst    138438000                       # number of overall miss cycles
system.icache.overall_miss_latency::total    138438000                       # number of overall miss cycles
system.icache.demand_accesses::.cpu.inst      1335853                       # number of demand (read+write) accesses
system.icache.demand_accesses::total          1335853                       # number of demand (read+write) accesses
system.icache.overall_accesses::.cpu.inst      1335853                       # number of overall (read+write) accesses
system.icache.overall_accesses::total         1335853                       # number of overall (read+write) accesses
system.icache.demand_miss_rate::.cpu.inst     0.004106                       # miss rate for demand accesses
system.icache.demand_miss_rate::total        0.004106                       # miss rate for demand accesses
system.icache.overall_miss_rate::.cpu.inst     0.004106                       # miss rate for overall accesses
system.icache.overall_miss_rate::total       0.004106                       # miss rate for overall accesses
system.icache.demand_avg_miss_latency::.cpu.inst 25239.380128                       # average overall miss latency
system.icache.demand_avg_miss_latency::total 25239.380128                       # average overall miss latency
system.icache.overall_avg_miss_latency::.cpu.inst 25239.380128                       # average overall miss latency
system.icache.overall_avg_miss_latency::total 25239.380128                       # average overall miss latency
system.icache.blocked_cycles::no_mshrs              0                       # number of cycles access was blocked
system.icache.blocked_cycles::no_targets            0                       # number of cycles access was blocked
system.icache.blocked::no_mshrs                     0                       # number of cycles access was blocked
system.icache.blocked::no_targets                   0                       # number of cycles access was blocked
system.icache.avg_blocked_cycles::no_mshrs          nan                       # average number of cycles each access was blocked
system.icache.avg_blocked_cycles::no_targets          nan                       # average number of cycles each access was blocked
system.icache.demand_mshr_misses::.cpu.inst         5485                       # number of demand (read+write) MSHR misses
system.icache.demand_mshr_misses::total          5485                       # number of demand (read+write) MSHR misses
system.icache.overall_mshr_misses::.cpu.inst         5485                       # number of overall MSHR misses
system.icache.overall_mshr_misses::total         5485                       # number of overall MSHR misses
system.icache.demand_mshr_miss_latency::.cpu.inst    127468000                       # number of demand (read+write) MSHR miss cycles
system.icache.demand_mshr_miss_latency::total    127468000                       # number of demand (read+write) MSHR miss cycles
system.icache.overall_mshr_miss_latency::.cpu.inst    127468000                       # number of overall MSHR miss cycles
system.icache.overall_mshr_miss_latency::total    127468000                       # number of overall MSHR miss cycles
system.icache.demand_mshr_miss_rate::.cpu.inst     0.004106                       # mshr miss rate for demand accesses
system.icache.demand_mshr_miss_rate::total     0.004106                       # mshr miss rate for demand accesses
system.icache.overall_mshr_miss_rate::.cpu.inst     0.004106                       # mshr miss rate for overall accesses
system.icache.overall_mshr_miss_rate::total     0.004106                       # mshr miss rate for overall accesses
system.icache.demand_avg_mshr_miss_latency::.cpu.inst 23239.380128                       # average overall mshr miss latency
system.icache.demand_avg_mshr_miss_latency::total 23239.380128                       # average overall mshr miss latency
system.icache.overall_avg_mshr_miss_latency::.cpu.inst 23239.380128                       # average overall mshr miss latency
system.icache.overall_avg_mshr_miss_latency::total 23239.380128                       # average overall mshr miss latency
system.icache.replacements                       5251                       # number of replacements
system.icache.ReadReq_hits::.cpu.inst         1330368                       # number of ReadReq hits
system.icache.ReadReq_hits::total             1330368                       # number of ReadReq hits
system.icache.ReadReq_misses::.cpu.inst          5485                       # number of ReadReq misses
system.icache.ReadReq_misses::total              5485                       # number of ReadReq misses
system.icache.ReadReq_miss_latency::.cpu.inst    138438000                       # number of ReadReq miss cycles
system.icache.ReadReq_miss_latency::total    138438000                       # number of ReadReq miss cycles
system.icache.ReadReq_accesses::.cpu.inst      1335853                       # number of ReadReq accesses(hits+misses)
system.icache.ReadReq_accesses::total         1335853                       # number of ReadReq accesses(hits+misses)
system.icache.ReadReq_miss_rate::.cpu.inst     0.004106                       # miss rate for ReadReq accesses
system.icache.ReadReq_miss_rate::total       0.004106                       # miss rate for ReadReq accesses
system.icache.ReadReq_avg_miss_latency::.cpu.inst 25239.380128                       # average ReadReq miss latency
system.icache.ReadReq_avg_miss_latency::total 25239.380128                       # average ReadReq miss latency
system.icache.ReadReq_mshr_misses::.cpu.inst         5485                       # number of ReadReq MSHR misses
system.icache.ReadReq_mshr_misses::total         5485                       # number of ReadReq MSHR misses
system.icache.ReadReq_mshr_miss_latency::.cpu.inst    127468000                       # number of ReadReq MSHR miss cycles
system.icache.ReadReq_mshr_miss_latency::total    127468000                       # number of ReadReq MSHR miss cycles
system.icache.ReadReq_mshr_miss_rate::.cpu.inst     0.004106                       # mshr miss rate for ReadReq accesses
system.icache.ReadReq_mshr_miss_rate::total     0.004106                       # mshr miss rate for ReadReq accesses
system.icache.ReadReq_avg_mshr_miss_latency::.cpu.inst 23239.380128                       # average ReadReq mshr miss latency
system.icache.ReadReq_avg_mshr_miss_latency::total 23239.380128                       # average ReadReq mshr miss latency
system.icache.power_state.pwrStateResidencyTicks::UNDEFINED   6542537000                       # Cumulative time (in ticks) in various power states
system.icache.tags.tagsinuse               231.266775                       # Cycle average of tags in use
system.icache.tags.total_refs                  255412                       # Total number of references to valid blocks.
system.icache.tags.sampled_refs                  5251                       # Sample count of references to valid blocks.
system.icache.tags.avg_refs                 48.640640                       # Average number of references to valid blocks.
system.icache.tags.warmup_cycle                 82000                       # Cycle when the warmup percentage was hit.
system.icache.tags.occ_blocks::.cpu.inst   231.266775                       # Average occupied blocks per requestor
system.icache.tags.occ_percent::.cpu.inst     0.903386                       # Average percentage of cache occupancy
system.icache.tags.occ_percent::total        0.903386                       # Average percentage of cache occupancy
system.icache.tags.occ_task_id_blocks::1024          234                       # Occupied blocks per task id
system.icache.tags.age_task_id_blocks_1024::0            2                       # Occupied blocks per task id
system.icache.tags.age_task_id_blocks_1024::2           24                       # Occupied blocks per task id
system.icache.tags.age_task_id_blocks_1024::3          208                       # Occupied blocks per task id
system.icache.tags.occ_task_id_percent::1024     0.914062                       # Percentage of cache occupancy per task id
system.icache.tags.tag_accesses               1341338                       # Number of tag accesses
system.icache.tags.data_accesses              1341338                       # Number of data accesses
system.icache.tags.power_state.pwrStateResidencyTicks::UNDEFINED   6542537000                       # Cumulative time (in ticks) in various power states
system.membus.trans_dist::ReadReq               35198                       # Transaction distribution
system.membus.trans_dist::ReadResp              35198                       # Transaction distribution
system.membus.trans_dist::WritebackDirty        26106                       # Transaction distribution
system.membus.pkt_count_system.cache_small.mem_side::system.mem_ctrl.port        96502                       # Packet count per connected master and slave (bytes)
system.membus.pkt_count_system.cache_small.mem_side::total        96502                       # Packet count per connected master and slave (bytes)
system.membus.pkt_count::total                  96502                       # Packet count per connected master and slave (bytes)
system.membus.pkt_size_system.cache_small.mem_side::system.mem_ctrl.port      3923456                       # Cumulative packet size per connected master and slave (bytes)
system.membus.pkt_size_system.cache_small.mem_side::total      3923456                       # Cumulative packet size per connected master and slave (bytes)
system.membus.pkt_size::total                 3923456                       # Cumulative packet size per connected master and slave (bytes)
system.membus.reqLayer2.occupancy           165728000                       # Layer occupancy (ticks)
system.membus.reqLayer2.utilization               2.5                       # Layer utilization (%)
system.membus.respLayer1.occupancy          185402000                       # Layer occupancy (ticks)
system.membus.respLayer1.utilization              2.8                       # Layer utilization (%)
system.membus.power_state.pwrStateResidencyTicks::UNDEFINED   6542537000                       # Cumulative time (in ticks) in various power states
system.mem_ctrl.bytes_read::.cpu.inst           50816                       # Number of bytes read from this memory
system.mem_ctrl.bytes_read::.cpu.data         2201856                       # Number of bytes read from this memory
system.mem_ctrl.bytes_read::total             2252672                       # Number of bytes read from this memory
system.mem_ctrl.bytes_inst_read::.cpu.inst        50816                       # Number of instructions bytes read from this memory
system.mem_ctrl.bytes_inst_read::total          50816                       # Number of instructions bytes read from this memory
system.mem_ctrl.bytes_written::.writebacks      1670784                       # Number of bytes written to this memory
system.mem_ctrl.bytes_written::total          1670784                       # Number of bytes written to this memory
system.mem_ctrl.num_reads::.cpu.inst              794                       # Number of read requests responded to by this memory
system.mem_ctrl.num_reads::.cpu.data            34404                       # Number of read requests responded to by this memory
system.mem_ctrl.num_reads::total                35198                       # Number of read requests responded to by this memory
system.mem_ctrl.num_writes::.writebacks         26106                       # Number of write requests responded to by this memory
system.mem_ctrl.num_writes::total               26106                       # Number of write requests responded to by this memory
system.mem_ctrl.bw_read::.cpu.inst            7767018                       # Total read bandwidth from this memory (bytes/s)
system.mem_ctrl.bw_read::.cpu.data          336544677                       # Total read bandwidth from this memory (bytes/s)
system.mem_ctrl.bw_read::total              344311694                       # Total read bandwidth from this memory (bytes/s)
system.mem_ctrl.bw_inst_read::.cpu.inst       7767018                       # Instruction read bandwidth from this memory (bytes/s)
system.mem_ctrl.bw_inst_read::total           7767018                       # Instruction read bandwidth from this memory (bytes/s)
system.mem_ctrl.bw_write::.writebacks       255372495                       # Write bandwidth from this memory (bytes/s)
system.mem_ctrl.bw_write::total             255372495                       # Write bandwidth from this memory (bytes/s)
system.mem_ctrl.bw_total::.writebacks       255372495                       # Total bandwidth to/from this memory (bytes/s)
system.mem_ctrl.bw_total::.cpu.inst           7767018                       # Total bandwidth to/from this memory (bytes/s)
system.mem_ctrl.bw_total::.cpu.data         336544677                       # Total bandwidth to/from this memory (bytes/s)
system.mem_ctrl.bw_total::total             599684190                       # Total bandwidth to/from this memory (bytes/s)
system.mem_ctrl.avgPriority_.writebacks::samples     26106.00                       # Average QoS priority value for accepted requests
system.mem_ctrl.avgPriority_.cpu.inst::samples       794.00                       # Average QoS priority value for accepted requests
system.mem_ctrl.avgPriority_.cpu.data::samples     34401.00                       # Average QoS priority value for accepted requests
system.mem_ctrl.priorityMinLatency       0.000000018750                       # per QoS priority minimum request to response latency (s)
system.mem_ctrl.priorityMaxLatency       0.002913304500                       # per QoS priority maximum request to response latency (s)
system.mem_ctrl.numReadWriteTurnArounds          1625                       # Number of turnarounds from READ to WRITE
system.mem_ctrl.numWriteReadTurnArounds          1625                       # Number of turnarounds from WRITE to READ
system.mem_ctrl.numStayReadState                96533                       # Number of times bus staying in READ state
system.mem_ctrl.numStayWriteState               24537                       # Number of times bus staying in WRITE state
system.mem_ctrl.readReqs                        35198                       # Number of read requests accepted
system.mem_ctrl.writeReqs                       26106                       # Number of write requests accepted
system.mem_ctrl.readBursts                      35198                       # Number of DRAM read bursts, including those serviced by the write queue
system.mem_ctrl.writeBursts                     26106                       # Number of DRAM write bursts, including those merged in the write queue
system.mem_ctrl.servicedByWrQ                       3                       # Number of DRAM read bursts serviced by the write queue
system.mem_ctrl.mergedWrBursts                      0                       # Number of DRAM write bursts merged with an existing one
system.mem_ctrl.neitherReadNorWriteReqs             0                       # Number of requests that are neither read nor write
system.mem_ctrl.perBankRdBursts::0               2212                       # Per bank write bursts
system.mem_ctrl.perBankRdBursts::1               2301                       # Per bank write bursts
system.mem_ctrl.perBankRdBursts::2               2336                       # Per bank write bursts
system.mem_ctrl.perBankRdBursts::3               2339                       # Per bank write bursts
system.mem_ctrl.perBankRdBursts::4               2412                       # Per bank write bursts
system.mem_ctrl.perBankRdBursts::5               2227                       # Per bank write bursts
system.mem_ctrl.perBankRdBursts::6               2189                       # Per bank write bursts
system.mem_ctrl.perBankRdBursts::7               2164                       # Per bank write bursts
system.mem_ctrl.perBankRdBursts::8               2074                       # Per bank write bursts
system.mem_ctrl.perBankRdBursts::9               2077                       # Per bank write bursts
system.mem_ctrl.perBankRdBursts::10              2170                       # Per bank write bursts
system.mem_ctrl.perBankRdBursts::11              2096                       # Per bank write bursts
system.mem_ctrl.perBankRdBursts::12              2158                       # Per bank write bursts
system.mem_ctrl.perBankRdBursts::13              2157                       # Per bank write bursts
system.mem_ctrl.perBankRdBursts::14              2110                       # Per bank write bursts
system.mem_ctrl.perBankRdBursts::15              2173                       # Per bank write bursts
system.mem_ctrl.perBankWrBursts::0               1561                       # Per bank write bursts
system.mem_ctrl.perBankWrBursts::1               1770                       # Per bank write bursts
system.mem_ctrl.perBankWrBursts::2               1759                       # Per bank write bursts
system.mem_ctrl.perBankWrBursts::3               1807                       # Per bank write bursts
system.mem_ctrl.perBankWrBursts::4               1725                       # Per bank write bursts
system.mem_ctrl.perBankWrBursts::5               1664                       # Per bank write bursts
system.mem_ctrl.perBankWrBursts::6               1639                       # Per bank write bursts
system.mem_ctrl.perBankWrBursts::7               1623                       # Per bank write bursts
system.mem_ctrl.perBankWrBursts::8               1536                       # Per bank write bursts
system.mem_ctrl.perBankWrBursts::9               1543                       # Per bank write bursts
system.mem_ctrl.perBankWrBursts::10              1575                       # Per bank write bursts
system.mem_ctrl.perBankWrBursts::11              1542                       # Per bank write bursts
system.mem_ctrl.perBankWrBursts::12              1574                       # Per bank write bursts
system.mem_ctrl.perBankWrBursts::13              1596                       # Per bank write bursts
system.mem_ctrl.perBankWrBursts::14              1570                       # Per bank write bursts
system.mem_ctrl.perBankWrBursts::15              1601                       # Per bank write bursts
system.mem_ctrl.avgRdQLen                        1.00                       # Average read queue length when enqueuing
system.mem_ctrl.avgWrQLen                       19.85                       # Average write queue length when enqueuing
system.mem_ctrl.totQLat                     301919750                       # Total ticks spent queuing
system.mem_ctrl.totBusLat                   175975000                       # Total ticks spent in databus transfers
system.mem_ctrl.totMemAccLat                961826000                       # Total ticks spent from burst creation until serviced by the DRAM
system.mem_ctrl.avgQLat                       8578.48                       # Average queueing delay per DRAM burst
system.mem_ctrl.avgBusLat                     5000.00                       # Average bus latency per DRAM burst
system.mem_ctrl.avgMemAccLat                 27328.48                       # Average memory access latency per DRAM burst
system.mem_ctrl.numRdRetry                          0                       # Number of times read queue was full causing retry
system.mem_ctrl.numWrRetry                          0                       # Number of times write queue was full causing retry
system.mem_ctrl.readRowHits                     31798                       # Number of row buffer hits during reads
system.mem_ctrl.writeRowHits                    24189                       # Number of row buffer hits during writes
system.mem_ctrl.readRowHitRate                  90.35                       # Row buffer hit rate for reads
system.mem_ctrl.writeRowHitRate                 92.66                       # Row buffer hit rate for writes
system.mem_ctrl.readPktSize::0                      0                       # Read request sizes (log2)
system.mem_ctrl.readPktSize::1                      0                       # Read request sizes (log2)
system.mem_ctrl.readPktSize::2                      0                       # Read request sizes (log2)
system.mem_ctrl.readPktSize::3                      0                       # Read request sizes (log2)
system.mem_ctrl.readPktSize::4                      0                       # Read request sizes (log2)
system.mem_ctrl.readPktSize::5                      0                       # Read request sizes (log2)
system.mem_ctrl.readPktSize::6                  35198                       # Read request sizes (log2)
system.mem_ctrl.writePktSize::0                     0                       # Write request sizes (log2)
system.mem_ctrl.writePktSize::1                     0                       # Write request sizes (log2)
system.mem_ctrl.writePktSize::2                     0                       # Write request sizes (log2)
system.mem_ctrl.writePktSize::3                     0                       # Write request sizes (log2)
system.mem_ctrl.writePktSize::4                     0                       # Write request sizes (log2)
system.mem_ctrl.writePktSize::5                     0                       # Write request sizes (log2)
system.mem_ctrl.writePktSize::6                 26106                       # Write request sizes (log2)
system.mem_ctrl.rdQLenPdf::0                    35193                       # What read queue length does an incoming req see
system.mem_ctrl.rdQLenPdf::1                        2                       # What read queue length does an incoming req see
system.mem_ctrl.rdQLenPdf::2                        0                       # What read queue length does an incoming req see
system.mem_ctrl.rdQLenPdf::3                        0                       # What read queue length does an incoming req see
system.mem_ctrl.rdQLenPdf::4                        0                       # What read queue length does an incoming req see
system.mem_ctrl.rdQLenPdf::5                        0                       # What read queue length does an incoming req see
system.mem_ctrl.rdQLenPdf::6                        0                       # What read queue length does an incoming req see
system.mem_ctrl.rdQLenPdf::7                        0                       # What read queue length does an incoming req see
system.mem_ctrl.rdQLenPdf::8                        0                       # What read queue length does an incoming req see
system.mem_ctrl.rdQLenPdf::9                        0                       # What read queue length does an incoming req see
system.mem_ctrl.rdQLenPdf::10                       0                       # What read queue length does an incoming req see
system.mem_ctrl.rdQLenPdf::11                       0                       # What read queue length does an incoming req see
system.mem_ctrl.rdQLenPdf::12                       0                       # What read queue length does an incoming req see
system.mem_ctrl.rdQLenPdf::13                       0                       # What read queue length does an incoming req see
system.mem_ctrl.rdQLenPdf::14                       0                       # What read queue length does an incoming req see
system.mem_ctrl.rdQLenPdf::15                       0                       # What read queue length does an incoming req see
system.mem_ctrl.rdQLenPdf::16                       0                       # What read queue length does an incoming req see
system.mem_ctrl.rdQLenPdf::17                       0                       # What read queue length does an incoming req see
system.mem_ctrl.rdQLenPdf::18                       0                       # What read queue length does an incoming req see
system.mem_ctrl.rdQLenPdf::19                       0                       # What read queue length does an incoming req see
system.mem_ctrl.rdQLenPdf::20                       0                       # What read queue length does an incoming req see
system.mem_ctrl.rdQLenPdf::21                       0                       # What read queue length does an incoming req see
system.mem_ctrl.rdQLenPdf::22                       0                       # What read queue length does an incoming req see
system.mem_ctrl.rdQLenPdf::23                       0                       # What read queue length does an incoming req see
system.mem_ctrl.rdQLenPdf::24                       0                       # What read queue length does an incoming req see
system.mem_ctrl.rdQLenPdf::25                       0                       # What read queue length does an incoming req see
system.mem_ctrl.rdQLenPdf::26                       0                       # What read queue length does an incoming req see
system.mem_ctrl.rdQLenPdf::27                       0                       # What read queue length does an incoming req see
system.mem_ctrl.rdQLenPdf::28                       0                       # What read queue length does an incoming req see
system.mem_ctrl.rdQLenPdf::29                       0                       # What read queue length does an incoming req see
system.mem_ctrl.rdQLenPdf::30                       0                       # What read queue length does an incoming req see
system.mem_ctrl.rdQLenPdf::31                       0                       # What read queue length does an incoming req see
system.mem_ctrl.wrQLenPdf::0                        1                       # What write queue length does an incoming req see
system.mem_ctrl.wrQLenPdf::1                        1                       # What write queue length does an incoming req see
system.mem_ctrl.wrQLenPdf::2                        1                       # What write queue length does an incoming req see
system.mem_ctrl.wrQLenPdf::3                        1                       # What write queue length does an incoming req see
system.mem_ctrl.wrQLenPdf::4                        1                       # What write queue length does an incoming req see
system.mem_ctrl.wrQLenPdf::5                        1                       # What write queue length does an incoming req see
system.mem_ctrl.wrQLenPdf::6                        1                       # What write queue length does an incoming req see
system.mem_ctrl.wrQLenPdf::7                        1                       # What write queue length does an incoming req see
system.mem_ctrl.wrQLenPdf::8                        1                       # What write queue length does an incoming req see
system.mem_ctrl.wrQLenPdf::9                        1                       # What write queue length does an incoming req see
system.mem_ctrl.wrQLenPdf::10                       1                       # What write queue length does an incoming req see
system.mem_ctrl.wrQLenPdf::11                       1                       # What write queue length does an incoming req see
system.mem_ctrl.wrQLenPdf::12                       1                       # What write queue length does an incoming req see
system.mem_ctrl.wrQLenPdf::13                       1                       # What write queue length does an incoming req see
system.mem_ctrl.wrQLenPdf::14                       1                       # What write queue length does an incoming req see
system.mem_ctrl.wrQLenPdf::15                      41                       # What write queue length does an incoming req see
system.mem_ctrl.wrQLenPdf::16                      44                       # What write queue length does an incoming req see
system.mem_ctrl.wrQLenPdf::17                    1626                       # What write queue length does an incoming req see
system.mem_ctrl.wrQLenPdf::18                    1626                       # What write queue length does an incoming req see
system.mem_ctrl.wrQLenPdf::19                    1626                       # What write queue length does an incoming req see
system.mem_ctrl.wrQLenPdf::20                    1626                       # What write queue length does an incoming req see
system.mem_ctrl.wrQLenPdf::21                    1626                       # What write queue length does an incoming req see
system.mem_ctrl.wrQLenPdf::22                    1625                       # What write queue length does an incoming req see
system.mem_ctrl.wrQLenPdf::23                    1625                       # What write queue length does an incoming req see
system.mem_ctrl.wrQLenPdf::24                    1625                       # What write queue length does an incoming req see
system.mem_ctrl.wrQLenPdf::25                    1625                       # What write queue length does an incoming req see
system.mem_ctrl.wrQLenPdf::26                    1625                       # What write queue length does an incoming req see
system.mem_ctrl.wrQLenPdf::27                    1626                       # What write queue length does an incoming req see
system.mem_ctrl.wrQLenPdf::28                    1625                       # What write queue length does an incoming req see
system.mem_ctrl.wrQLenPdf::29                    1625                       # What write queue length does an incoming req see
system.mem_ctrl.wrQLenPdf::30                    1625                       # What write queue length does an incoming req see
system.mem_ctrl.wrQLenPdf::31                    1625                       # What write queue length does an incoming req see
system.mem_ctrl.wrQLenPdf::32                    1625                       # What write queue length does an incoming req see
system.mem_ctrl.wrQLenPdf::33                       0                       # What write queue length does an incoming req see
system.mem_ctrl.wrQLenPdf::34                       0                       # What write queue length does an incoming req see
system.mem_ctrl.wrQLenPdf::35                       0                       # What write queue length does an incoming req see
system.mem_ctrl.wrQLenPdf::36                       0                       # What write queue length does an incoming req see
system.mem_ctrl.wrQLenPdf::37                       0                       # What write queue length does an incoming req see
system.mem_ctrl.wrQLenPdf::38                       0                       # What write queue length does an incoming req see
system.mem_ctrl.wrQLenPdf::39                       0                       # What write queue length does an incoming req see
system.mem_ctrl.wrQLenPdf::40                       0                       # What write queue length does an incoming req see
system.mem_ctrl.wrQLenPdf::41                       0                       # What write queue length does an incoming req see
system.mem_ctrl.wrQLenPdf::42                       0                       # What write queue length does an incoming req see
system.mem_ctrl.wrQLenPdf::43                       0                       # What write queue length does an incoming req see
system.mem_ctrl.wrQLenPdf::44                       0                       # What write queue length does an incoming req see
system.mem_ctrl.wrQLenPdf::45                       0                       # What write queue length does an incoming req see
system.mem_ctrl.wrQLenPdf::46                       0                       # What write queue length does an incoming req see
system.mem_ctrl.wrQLenPdf::47                       0                       # What write queue length does an incoming req see
system.mem_ctrl.wrQLenPdf::48                       0                       # What write queue length does an incoming req see
system.mem_ctrl.wrQLenPdf::49                       0                       # What write queue length does an incoming req see
system.mem_ctrl.wrQLenPdf::50                       0                       # What write queue length does an incoming req see
system.mem_ctrl.wrQLenPdf::51                       0                       # What write queue length does an incoming req see
system.mem_ctrl.wrQLenPdf::52                       0                       # What write queue length does an incoming req see
system.mem_ctrl.wrQLenPdf::53                       0                       # What write queue length does an incoming req see
system.mem_ctrl.wrQLenPdf::54                       0                       # What write queue length does an incoming req see
system.mem_ctrl.wrQLenPdf::55                       0                       # What write queue length does an incoming req see
system.mem_ctrl.wrQLenPdf::56                       0                       # What write queue length does an incoming req see
system.mem_ctrl.wrQLenPdf::57                       0                       # What write queue length does an incoming req see
system.mem_ctrl.wrQLenPdf::58                       0                       # What write queue length does an incoming req see
system.mem_ctrl.wrQLenPdf::59                       0                       # What write queue length does an incoming req see
system.mem_ctrl.wrQLenPdf::60                       0                       # What write queue length does an incoming req see
system.mem_ctrl.wrQLenPdf::61                       0                       # What write queue length does an incoming req see
system.mem_ctrl.wrQLenPdf::62                       0                       # What write queue length does an incoming req see
system.mem_ctrl.wrQLenPdf::63                       0                       # What write queue length does an incoming req see
system.mem_ctrl.bytesPerActivate::samples         5293                       # Bytes accessed per row activation
system.mem_ctrl.bytesPerActivate::mean     740.963537                       # Bytes accessed per row activation
system.mem_ctrl.bytesPerActivate::gmean    578.885129                       # Bytes accessed per row activation
system.mem_ctrl.bytesPerActivate::stdev    362.082938                       # Bytes accessed per row activation
system.mem_ctrl.bytesPerActivate::0-127           388      7.33%      7.33% # Bytes accessed per row activation
system.mem_ctrl.bytesPerActivate::128-255          411      7.76%     15.10% # Bytes accessed per row activation
system.mem_ctrl.bytesPerActivate::256-383          481      9.09%     24.18% # Bytes accessed per row activation
system.mem_ctrl.bytesPerActivate::384-511          240      4.53%     28.72% # Bytes accessed per row activation
system.mem_ctrl.bytesPerActivate::512-639          232      4.38%     33.10% # Bytes accessed per row activation
system.mem_ctrl.bytesPerActivate::640-767          304      5.74%     38.84% # Bytes accessed per row activation
system.mem_ctrl.bytesPerActivate::768-895          138      2.61%     41.45% # Bytes accessed per row activation
system.mem_ctrl.bytesPerActivate::896-1023          216      4.08%     45.53% # Bytes accessed per row activation
system.mem_ctrl.bytesPerActivate::1024-1151         2883     54.47%    100.00% # Bytes accessed per row activation
system.mem_ctrl.bytesPerActivate::total          5293                       # Bytes accessed per row activation
system.mem_ctrl.rdPerTurnAround::samples         1625                       # Reads before turning the bus around for writes
system.mem_ctrl.rdPerTurnAround::mean       21.654154                       # Reads before turning the bus around for writes
system.mem_ctrl.rdPerTurnAround::gmean      16.292431                       # Reads before turning the bus around for writes
system.mem_ctrl.rdPerTurnAround::stdev     198.447862                       # Reads before turning the bus around for writes
system.mem_ctrl.rdPerTurnAround::0-255           1623     99.88%     99.88% # Reads before turning the bus around for writes
system.mem_ctrl.rdPerTurnAround::256-511            1      0.06%     99.94% # Reads before turning the bus around for writes
system.mem_ctrl.rdPerTurnAround::7936-8191            1      0.06%    100.00% # Reads before turning the bus around for writes
system.mem_ctrl.rdPerTurnAround::total           1625                       # Reads before turning the bus around for writes
system.mem_ctrl.wrPerTurnAround::samples         1625                       # Writes before turning the bus around for reads
system.mem_ctrl.wrPerTurnAround::mean       16.052308                       # Writes before turning the bus around for reads
system.mem_ctrl.wrPerTurnAround::gmean      16.049258                       # Writes before turning the bus around for reads
system.mem_ctrl.wrPerTurnAround::stdev       0.325964                       # Writes before turning the bus around for reads
system.mem_ctrl.wrPerTurnAround::16              1583     97.42%     97.42% # Writes before turning the bus around for reads
system.mem_ctrl.wrPerTurnAround::17                 1      0.06%     97.48% # Writes before turning the bus around for reads
system.mem_ctrl.wrPerTurnAround::18                40      2.46%     99.94% # Writes before turning the bus around for reads
system.mem_ctrl.wrPerTurnAround::20                 1      0.06%    100.00% # Writes before turning the bus around for reads
system.mem_ctrl.wrPerTurnAround::total           1625                       # Writes before turning the bus around for reads
system.mem_ctrl.bytesReadDRAM                 2252480                       # Total number of bytes read from DRAM
system.mem_ctrl.bytesReadWrQ                      192                       # Total number of bytes read from write queue
system.mem_ctrl.bytesWritten                  1669440                       # Total number of bytes written to DRAM
system.mem_ctrl.bytesReadSys                  2252672                       # Total read bytes from the system interface side
system.mem_ctrl.bytesWrittenSys               1670784                       # Total written bytes from the system interface side
system.mem_ctrl.avgRdBW                        344.28                       # Average DRAM read bandwidth in MiByte/s
system.mem_ctrl.avgWrBW                        255.17                       # Average achieved write bandwidth in MiByte/s
system.mem_ctrl.avgRdBWSys                     344.31                       # Average system read bandwidth in MiByte/s
system.mem_ctrl.avgWrBWSys                     255.37                       # Average system write bandwidth in MiByte/s
system.mem_ctrl.peakBW                       12800.00                       # Theoretical peak bandwidth in MiByte/s
system.mem_ctrl.busUtil                          4.68                       # Data bus utilization in percentage
system.mem_ctrl.busUtilRead                      2.69                       # Data bus utilization in percentage for reads
system.mem_ctrl.busUtilWrite                     1.99                       # Data bus utilization in percentage for writes
system.mem_ctrl.totGap                     6392522000                       # Total gap between requests
system.mem_ctrl.avgGap                      104275.77                       # Average gap between requests
system.mem_ctrl.masterReadBytes::.cpu.inst        50816                       # Per-master bytes read from memory
system.mem_ctrl.masterReadBytes::.cpu.data      2201664                       # Per-master bytes read from memory
system.mem_ctrl.masterWriteBytes::.writebacks      1669440                       # Per-master bytes write to memory
system.mem_ctrl.masterReadRate::.cpu.inst 7767017.595773627050                       # Per-master bytes read from memory rate (Bytes/sec)
system.mem_ctrl.masterReadRate::.cpu.data 336515330.368020832539                       # Per-master bytes read from memory rate (Bytes/sec)
system.mem_ctrl.masterWriteRate::.writebacks 255167070.511026531458                       # Per-master bytes write to memory rate (Bytes/sec)
system.mem_ctrl.masterReadAccesses::.cpu.inst          794                       # Per-master read serviced memory accesses
system.mem_ctrl.masterReadAccesses::.cpu.data        34404                       # Per-master read serviced memory accesses
system.mem_ctrl.masterWriteAccesses::.writebacks        26106                       # Per-master write serviced memory accesses
system.mem_ctrl.masterReadTotalLat::.cpu.inst     22507250                       # Per-master read total memory access latency
system.mem_ctrl.masterReadTotalLat::.cpu.data    939318750                       # Per-master read total memory access latency
system.mem_ctrl.masterWriteTotalLat::.writebacks 109296212250                       # Per-master write total memory access latency
system.mem_ctrl.masterReadAvgLat::.cpu.inst     28346.66                       # Per-master read average memory access latency
system.mem_ctrl.masterReadAvgLat::.cpu.data     27302.60                       # Per-master read average memory access latency
system.mem_ctrl.masterWriteAvgLat::.writebacks   4186631.89                       # Per-master write average memory access latency
system.mem_ctrl.pageHitRate                     91.33                       # Row buffer hit rate, read and write combined
system.mem_ctrl.rank1.actEnergy              17193120                       # Energy for activate commands per rank (pJ)
system.mem_ctrl.rank1.preEnergy               9138360                       # Energy for precharge commands per rank (pJ)
system.mem_ctrl.rank1.readEnergy            121487100                       # Energy for read commands per rank (pJ)
system.mem_ctrl.rank1.writeEnergy            65443140                       # Energy for write commands per rank (pJ)
system.mem_ctrl.rank1.refreshEnergy      516297600.000000                       # Energy for refresh commands per rank (pJ)
system.mem_ctrl.rank1.actBackEnergy        1068927840                       # Energy for active background per rank (pJ)
system.mem_ctrl.rank1.preBackEnergy        1612184640                       # Energy for precharge background per rank (pJ)
system.mem_ctrl.rank1.actPowerDownEnergy            0                       # Energy for active power-down per rank (pJ)
system.mem_ctrl.rank1.prePowerDownEnergy            0                       # Energy for precharge power-down per rank (pJ)
system.mem_ctrl.rank1.selfRefreshEnergy             0                       # Energy for self refresh per rank (pJ)
system.mem_ctrl.rank1.totalEnergy          3410671800                       # Total energy per rank (pJ)
system.mem_ctrl.rank1.averagePower         521.307224                       # Core power per rank (mW)
system.mem_ctrl.rank1.totalIdleTime                 0                       # Total Idle time Per DRAM Rank
system.mem_ctrl.rank1.memoryStateTime::IDLE   4165000750                       # Time in different power states
system.mem_ctrl.rank1.memoryStateTime::REF    218400000                       # Time in different power states
system.mem_ctrl.rank1.memoryStateTime::SREF            0                       # Time in different power states
system.mem_ctrl.rank1.memoryStateTime::PRE_PDN            0                       # Time in different power states
system.mem_ctrl.rank1.memoryStateTime::ACT   2159136250                       # Time in different power states
system.mem_ctrl.rank1.memoryStateTime::ACT_PDN            0                       # Time in different power states
system.mem_ctrl.rank0.actEnergy              20598900                       # Energy for activate commands per rank (pJ)
system.mem_ctrl.rank0.preEnergy              10948575                       # Energy for precharge commands per rank (pJ)
system.mem_ctrl.rank0.readEnergy            129805200                       # Energy for read commands per rank (pJ)
system.mem_ctrl.rank0.writeEnergy            70720560                       # Energy for write commands per rank (pJ)
system.mem_ctrl.rank0.refreshEnergy      516297600.000000                       # Energy for refresh commands per rank (pJ)
system.mem_ctrl.rank0.actBackEnergy        1764543300                       # Energy for active background per rank (pJ)
system.mem_ctrl.rank0.preBackEnergy        1026403200                       # Energy for precharge background per rank (pJ)
system.mem_ctrl.rank0.actPowerDownEnergy            0                       # Energy for active power-down per rank (pJ)
system.mem_ctrl.rank0.prePowerDownEnergy            0                       # Energy for precharge power-down per rank (pJ)
system.mem_ctrl.rank0.selfRefreshEnergy             0                       # Energy for self refresh per rank (pJ)
system.mem_ctrl.rank0.totalEnergy          3539317335                       # Total energy per rank (pJ)
system.mem_ctrl.rank0.averagePower         540.970167                       # Core power per rank (mW)
system.mem_ctrl.rank0.totalIdleTime                 0                       # Total Idle time Per DRAM Rank
system.mem_ctrl.rank0.memoryStateTime::IDLE   2635288250                       # Time in different power states
system.mem_ctrl.rank0.memoryStateTime::REF    218400000                       # Time in different power states
system.mem_ctrl.rank0.memoryStateTime::SREF            0                       # Time in different power states
system.mem_ctrl.rank0.memoryStateTime::PRE_PDN            0                       # Time in different power states
system.mem_ctrl.rank0.memoryStateTime::ACT   3688848750                       # Time in different power states
system.mem_ctrl.rank0.memoryStateTime::ACT_PDN            0                       # Time in different power states
system.mem_ctrl.power_state.pwrStateResidencyTicks::UNDEFINED   6542537000                       # Cumulative time (in ticks) in various power states
system.cache_medium.blocked_cycles::no_mshrs            0                       # number of cycles access was blocked
system.cache_medium.blocked_cycles::no_targets            0                       # number of cycles access was blocked
system.cache_medium.blocked::no_mshrs               0                       # number of cycles access was blocked
system.cache_medium.blocked::no_targets             0                       # number of cycles access was blocked
system.cache_medium.avg_blocked_cycles::no_mshrs          nan                       # average number of cycles each access was blocked
system.cache_medium.avg_blocked_cycles::no_targets          nan                       # average number of cycles each access was blocked
system.cache_medium.replacements                    0                       # number of replacements
system.cache_medium.power_state.pwrStateResidencyTicks::UNDEFINED   6542537000                       # Cumulative time (in ticks) in various power states
system.cache_medium.tags.tagsinuse                  0                       # Cycle average of tags in use
system.cache_medium.tags.total_refs                 0                       # Total number of references to valid blocks.
system.cache_medium.tags.sampled_refs               0                       # Sample count of references to valid blocks.
system.cache_medium.tags.avg_refs                 nan                       # Average number of references to valid blocks.
system.cache_medium.tags.warmup_cycle               0                       # Cycle when the warmup percentage was hit.
system.cache_medium.tags.tag_accesses               0                       # Number of tag accesses
system.cache_medium.tags.data_accesses              0                       # Number of data accesses
system.cache_medium.tags.power_state.pwrStateResidencyTicks::UNDEFINED   6542537000                       # Cumulative time (in ticks) in various power states
system.clk_domain.clock                          1000                       # Clock period in ticks
system.clk_domain.voltage_domain.voltage            1                       # Voltage in Volts
system.dcache.demand_hits::.cpu.data           489211                       # number of demand (read+write) hits
system.dcache.demand_hits::total               489211                       # number of demand (read+write) hits
system.dcache.overall_hits::.cpu.data          489212                       # number of overall hits
system.dcache.overall_hits::total              489212                       # number of overall hits
system.dcache.demand_misses::.cpu.data          39003                       # number of demand (read+write) misses
system.dcache.demand_misses::total              39003                       # number of demand (read+write) misses
system.dcache.overall_misses::.cpu.data         39442                       # number of overall misses
system.dcache.overall_misses::total             39442                       # number of overall misses
system.dcache.demand_miss_latency::.cpu.data   2715528000                       # number of demand (read+write) miss cycles
system.dcache.demand_miss_latency::total   2715528000                       # number of demand (read+write) miss cycles
system.dcache.overall_miss_latency::.cpu.data   2749092000                       # number of overall miss cycles
system.dcache.overall_miss_latency::total   2749092000                       # number of overall miss cycles
system.dcache.demand_accesses::.cpu.data       528214                       # number of demand (read+write) accesses
system.dcache.demand_accesses::total           528214                       # number of demand (read+write) accesses
system.dcache.overall_accesses::.cpu.data       528654                       # number of overall (read+write) accesses
system.dcache.overall_accesses::total          528654                       # number of overall (read+write) accesses
system.dcache.demand_miss_rate::.cpu.data     0.073839                       # miss rate for demand accesses
system.dcache.demand_miss_rate::total        0.073839                       # miss rate for demand accesses
system.dcache.overall_miss_rate::.cpu.data     0.074608                       # miss rate for overall accesses
system.dcache.overall_miss_rate::total       0.074608                       # miss rate for overall accesses
system.dcache.demand_avg_miss_latency::.cpu.data 69623.567418                       # average overall miss latency
system.dcache.demand_avg_miss_latency::total 69623.567418                       # average overall miss latency
system.dcache.overall_avg_miss_latency::.cpu.data 69699.609553                       # average overall miss latency
system.dcache.overall_avg_miss_latency::total 69699.609553                       # average overall miss latency
system.dcache.blocked_cycles::no_mshrs              0                       # number of cycles access was blocked
system.dcache.blocked_cycles::no_targets            0                       # number of cycles access was blocked
system.dcache.blocked::no_mshrs                     0                       # number of cycles access was blocked
system.dcache.blocked::no_targets                   0                       # number of cycles access was blocked
system.dcache.avg_blocked_cycles::no_mshrs          nan                       # average number of cycles each access was blocked
system.dcache.avg_blocked_cycles::no_targets          nan                       # average number of cycles each access was blocked
system.dcache.writebacks::.writebacks           35944                       # number of writebacks
system.dcache.writebacks::total                 35944                       # number of writebacks
system.dcache.demand_mshr_misses::.cpu.data        39003                       # number of demand (read+write) MSHR misses
system.dcache.demand_mshr_misses::total         39003                       # number of demand (read+write) MSHR misses
system.dcache.overall_mshr_misses::.cpu.data        39442                       # number of overall MSHR misses
system.dcache.overall_mshr_misses::total        39442                       # number of overall MSHR misses
system.dcache.demand_mshr_miss_latency::.cpu.data   2637524000                       # number of demand (read+write) MSHR miss cycles
system.dcache.demand_mshr_miss_latency::total   2637524000                       # number of demand (read+write) MSHR miss cycles
system.dcache.overall_mshr_miss_latency::.cpu.data   2670210000                       # number of overall MSHR miss cycles
[...]
system.dcache.tags.age_task_id_blocks_1024::4           21                       # Occupied blocks per task id
system.dcache.tags.occ_task_id_percent::1024            1                       # Percentage of cache occupancy per task id
system.dcache.tags.tag_accesses               3241499                       # Number of tag accesses
system.dcache.tags.data_accesses              3241499                       # Number of data accesses
system.dcache.tags.power_state.pwrStateResidencyTicks::UNDEFINED  28998951000                       # Cumulative time (in ticks) in various power states
system.cache_large.blocked_cycles::no_mshrs            0                       # number of cycles access was blocked
system.cache_large.blocked_cycles::no_targets            0                       # number of cycles access was blocked
system.cache_large.blocked::no_mshrs                0                       # number of cycles access was blocked
system.cache_large.blocked::no_targets              0                       # number of cycles access was blocked
system.cache_large.avg_blocked_cycles::no_mshrs          nan                       # average number of cycles each access was blocked
system.cache_large.avg_blocked_cycles::no_targets          nan                       # average number of cycles each access was blocked
system.cache_large.replacements                     0                       # number of replacements
system.cache_large.power_state.pwrStateResidencyTicks::UNDEFINED  28998951000                       # Cumulative time (in ticks) in various power states
system.cache_large.tags.tagsinuse                   0                       # Cycle average of tags in use
system.cache_large.tags.total_refs                  0                       # Total number of references to valid blocks.
system.cache_large.tags.sampled_refs                0                       # Sample count of references to valid blocks.
system.cache_large.tags.avg_refs                  nan                       # Average number of references to valid blocks.
system.cache_large.tags.warmup_cycle                0                       # Cycle when the warmup percentage was hit.
system.cache_large.tags.tag_accesses                0                       # Number of tag accesses
system.cache_large.tags.data_accesses               0                       # Number of data accesses
system.cache_large.tags.power_state.pwrStateResidencyTicks::UNDEFINED  28998951000                       # Cumulative time (in ticks) in various power states
system.l2cache.demand_hits::.cpu.inst            3304                       # number of demand (read+write) hits
system.l2cache.demand_hits::.cpu.data           30520                       # number of demand (read+write) hits
system.l2cache.demand_hits::total               33824                       # number of demand (read+write) hits
system.l2cache.overall_hits::.cpu.inst           3304                       # number of overall hits
system.l2cache.overall_hits::.cpu.data          30520                       # number of overall hits
system.l2cache.overall_hits::total              33824                       # number of overall hits
system.l2cache.demand_misses::.cpu.inst         43234                       # number of demand (read+write) misses
system.l2cache.demand_misses::.cpu.data         44961                       # number of demand (read+write) misses
system.l2cache.demand_misses::total             88195                       # number of demand (read+write) misses
system.l2cache.overall_misses::.cpu.inst        43234                       # number of overall misses
system.l2cache.overall_misses::.cpu.data        44961                       # number of overall misses
system.l2cache.overall_misses::total            88195                       # number of overall misses
system.l2cache.demand_miss_latency::.cpu.inst    612434000                       # number of demand (read+write) miss cycles
system.l2cache.demand_miss_latency::.cpu.data   2623273000                       # number of demand (read+write) miss cycles
system.l2cache.demand_miss_latency::total   3235707000                       # number of demand (read+write) miss cycles
system.l2cache.overall_miss_latency::.cpu.inst    612434000                       # number of overall miss cycles
system.l2cache.overall_miss_latency::.cpu.data   2623273000                       # number of overall miss cycles
system.l2cache.overall_miss_latency::total   3235707000                       # number of overall miss cycles
system.l2cache.demand_accesses::.cpu.inst        46538                       # number of demand (read+write) accesses
system.l2cache.demand_accesses::.cpu.data        75481                       # number of demand (read+write) accesses
system.l2cache.demand_accesses::total          122019                       # number of demand (read+write) accesses
system.l2cache.overall_accesses::.cpu.inst        46538                       # number of overall (read+write) accesses
system.l2cache.overall_accesses::.cpu.data        75481                       # number of overall (read+write) accesses
system.l2cache.overall_accesses::total         122019                       # number of overall (read+write) accesses
system.l2cache.demand_miss_rate::.cpu.inst     0.929004                       # miss rate for demand accesses
system.l2cache.demand_miss_rate::.cpu.data     0.595660                       # miss rate for demand accesses
system.l2cache.demand_miss_rate::total       0.722797                       # miss rate for demand accesses
system.l2cache.overall_miss_rate::.cpu.inst     0.929004                       # miss rate for overall accesses
system.l2cache.overall_miss_rate::.cpu.data     0.595660                       # miss rate for overall accesses
system.l2cache.overall_miss_rate::total      0.722797                       # miss rate for overall accesses
system.l2cache.demand_avg_miss_latency::.cpu.inst 14165.564139                       # average overall miss latency
system.l2cache.demand_avg_miss_latency::.cpu.data 58345.521674                       # average overall miss latency
system.l2cache.demand_avg_miss_latency::total 36688.100232                       # average overall miss latency
system.l2cache.overall_avg_miss_latency::.cpu.inst 14165.564139                       # average overall miss latency
system.l2cache.overall_avg_miss_latency::.cpu.data 58345.521674                       # average overall miss latency
system.l2cache.overall_avg_miss_latency::total 36688.100232                       # average overall miss latency
system.l2cache.blocked_cycles::no_mshrs             0                       # number of cycles access was blocked
system.l2cache.blocked_cycles::no_targets            0                       # number of cycles access was blocked
system.l2cache.blocked::no_mshrs                    0                       # number of cycles access was blocked
system.l2cache.blocked::no_targets                  0                       # number of cycles access was blocked
system.l2cache.avg_blocked_cycles::no_mshrs          nan                       # average number of cycles each access was blocked
system.l2cache.avg_blocked_cycles::no_targets          nan                       # average number of cycles each access was blocked
system.l2cache.writebacks::.writebacks          36343                       # number of writebacks
system.l2cache.writebacks::total                36343                       # number of writebacks
system.l2cache.demand_mshr_misses::.cpu.inst        43234                       # number of demand (read+write) MSHR misses
system.l2cache.demand_mshr_misses::.cpu.data        44961                       # number of demand (read+write) MSHR misses
system.l2cache.demand_mshr_misses::total        88195                       # number of demand (read+write) MSHR misses
system.l2cache.overall_mshr_misses::.cpu.inst        43234                       # number of overall MSHR misses
system.l2cache.overall_mshr_misses::.cpu.data        44961                       # number of overall MSHR misses
system.l2cache.overall_mshr_misses::total        88195                       # number of overall MSHR misses
system.l2cache.demand_mshr_miss_latency::.cpu.inst    525966000                       # number of demand (read+write) MSHR miss cycles
system.l2cache.demand_mshr_miss_latency::.cpu.data   2533351000                       # number of demand (read+write) MSHR miss cycles
system.l2cache.demand_mshr_miss_latency::total   3059317000                       # number of demand (read+write) MSHR miss cycles
system.l2cache.overall_mshr_miss_latency::.cpu.inst    525966000                       # number of overall MSHR miss cycles
system.l2cache.overall_mshr_miss_latency::.cpu.data   2533351000                       # number of overall MSHR miss cycles
system.l2cache.overall_mshr_miss_latency::total   3059317000                       # number of overall MSHR miss cycles
system.l2cache.demand_mshr_miss_rate::.cpu.inst     0.929004                       # mshr miss rate for demand accesses
system.l2cache.demand_mshr_miss_rate::.cpu.data     0.595660                       # mshr miss rate for demand accesses
system.l2cache.demand_mshr_miss_rate::total     0.722797                       # mshr miss rate for demand accesses
system.l2cache.overall_mshr_miss_rate::.cpu.inst     0.929004                       # mshr miss rate for overall accesses
system.l2cache.overall_mshr_miss_rate::.cpu.data     0.595660                       # mshr miss rate for overall accesses
system.l2cache.overall_mshr_miss_rate::total     0.722797                       # mshr miss rate for overall accesses
system.l2cache.demand_avg_mshr_miss_latency::.cpu.inst 12165.564139                       # average overall mshr miss latency
system.l2cache.demand_avg_mshr_miss_latency::.cpu.data 56345.521674                       # average overall mshr miss latency
system.l2cache.demand_avg_mshr_miss_latency::total 34688.100232                       # average overall mshr miss latency
system.l2cache.overall_avg_mshr_miss_latency::.cpu.inst 12165.564139                       # average overall mshr miss latency
system.l2cache.overall_avg_mshr_miss_latency::.cpu.data 56345.521674                       # average overall mshr miss latency
system.l2cache.overall_avg_mshr_miss_latency::total 34688.100232                       # average overall mshr miss latency
system.l2cache.replacements                     90802                       # number of replacements
system.l2cache.ReadReq_hits::.cpu.inst           3304                       # number of ReadReq hits
system.l2cache.ReadReq_hits::.cpu.data          30520                       # number of ReadReq hits
system.l2cache.ReadReq_hits::total              33824                       # number of ReadReq hits
system.l2cache.ReadReq_misses::.cpu.inst        43234                       # number of ReadReq misses
system.l2cache.ReadReq_misses::.cpu.data        44961                       # number of ReadReq misses
system.l2cache.ReadReq_misses::total            88195                       # number of ReadReq misses
system.l2cache.ReadReq_miss_latency::.cpu.inst    612434000                       # number of ReadReq miss cycles
system.l2cache.ReadReq_miss_latency::.cpu.data   2623273000                       # number of ReadReq miss cycles
system.l2cache.ReadReq_miss_latency::total   3235707000                       # number of ReadReq miss cycles
system.l2cache.ReadReq_accesses::.cpu.inst        46538                       # number of ReadReq accesses(hits+misses)
system.l2cache.ReadReq_accesses::.cpu.data        75481                       # number of ReadReq accesses(hits+misses)
system.l2cache.ReadReq_accesses::total         122019                       # number of ReadReq accesses(hits+misses)
system.l2cache.ReadReq_miss_rate::.cpu.inst     0.929004                       # miss rate for ReadReq accesses
system.l2cache.ReadReq_miss_rate::.cpu.data     0.595660                       # miss rate for ReadReq accesses
system.l2cache.ReadReq_miss_rate::total      0.722797                       # miss rate for ReadReq accesses
system.l2cache.ReadReq_avg_miss_latency::.cpu.inst 14165.564139                       # average ReadReq miss latency
system.l2cache.ReadReq_avg_miss_latency::.cpu.data 58345.521674                       # average ReadReq miss latency
system.l2cache.ReadReq_avg_miss_latency::total 36688.100232                       # average ReadReq miss latency
system.l2cache.ReadReq_mshr_misses::.cpu.inst        43234                       # number of ReadReq MSHR misses
system.l2cache.ReadReq_mshr_misses::.cpu.data        44961                       # number of ReadReq MSHR misses
system.l2cache.ReadReq_mshr_misses::total        88195                       # number of ReadReq MSHR misses
system.l2cache.ReadReq_mshr_miss_latency::.cpu.inst    525966000                       # number of ReadReq MSHR miss cycles
system.l2cache.ReadReq_mshr_miss_latency::.cpu.data   2533351000                       # number of ReadReq MSHR miss cycles
system.l2cache.ReadReq_mshr_miss_latency::total   3059317000                       # number of ReadReq MSHR miss cycles
system.l2cache.ReadReq_mshr_miss_rate::.cpu.inst     0.929004                       # mshr miss rate for ReadReq accesses
system.l2cache.ReadReq_mshr_miss_rate::.cpu.data     0.595660                       # mshr miss rate for ReadReq accesses
system.l2cache.ReadReq_mshr_miss_rate::total     0.722797                       # mshr miss rate for ReadReq accesses
system.l2cache.ReadReq_avg_mshr_miss_latency::.cpu.inst 12165.564139                       # average ReadReq mshr miss latency
system.l2cache.ReadReq_avg_mshr_miss_latency::.cpu.data 56345.521674                       # average ReadReq mshr miss latency
system.l2cache.ReadReq_avg_mshr_miss_latency::total 34688.100232                       # average ReadReq mshr miss latency
system.l2cache.WritebackDirty_hits::.writebacks        39722                       # number of WritebackDirty hits
system.l2cache.WritebackDirty_hits::total        39722                       # number of WritebackDirty hits
system.l2cache.WritebackDirty_accesses::.writebacks        39722                       # number of WritebackDirty accesses(hits+misses)
system.l2cache.WritebackDirty_accesses::total        39722                       # number of WritebackDirty accesses(hits+misses)
system.l2cache.power_state.pwrStateResidencyTicks::UNDEFINED  28998951000                       # Cumulative time (in ticks) in various power states
system.l2cache.tags.tagsinuse              509.709999                       # Cycle average of tags in use
system.l2cache.tags.total_refs                 161741                       # Total number of references to valid blocks.
system.l2cache.tags.sampled_refs                91314                       # Sample count of references to valid blocks.
system.l2cache.tags.avg_refs                 1.771262                       # Average number of references to valid blocks.
system.l2cache.tags.warmup_cycle                78000                       # Cycle when the warmup percentage was hit.
system.l2cache.tags.occ_blocks::.writebacks    82.142911                       # Average occupied blocks per requestor
system.l2cache.tags.occ_blocks::.cpu.inst    11.080850                       # Average occupied blocks per requestor
system.l2cache.tags.occ_blocks::.cpu.data   416.486238                       # Average occupied blocks per requestor
system.l2cache.tags.occ_percent::.writebacks     0.160435                       # Average percentage of cache occupancy
system.l2cache.tags.occ_percent::.cpu.inst     0.021642                       # Average percentage of cache occupancy
system.l2cache.tags.occ_percent::.cpu.data     0.813450                       # Average percentage of cache occupancy
system.l2cache.tags.occ_percent::total       0.995527                       # Average percentage of cache occupancy
system.l2cache.tags.occ_task_id_blocks::1024          512                       # Occupied blocks per task id
system.l2cache.tags.age_task_id_blocks_1024::0            4                       # Occupied blocks per task id
system.l2cache.tags.age_task_id_blocks_1024::1            5                       # Occupied blocks per task id
system.l2cache.tags.age_task_id_blocks_1024::2           50                       # Occupied blocks per task id
system.l2cache.tags.age_task_id_blocks_1024::3          134                       # Occupied blocks per task id
system.l2cache.tags.age_task_id_blocks_1024::4          319                       # Occupied blocks per task id
system.l2cache.tags.occ_task_id_percent::1024            1                       # Percentage of cache occupancy per task id
system.l2cache.tags.tag_accesses               253055                       # Number of tag accesses
system.l2cache.tags.data_accesses              253055                       # Number of data accesses
system.l2cache.tags.power_state.pwrStateResidencyTicks::UNDEFINED  28998951000                       # Cumulative time (in ticks) in various power states
system.l2bar.trans_dist::ReadReq               122019                       # Transaction distribution
system.l2bar.trans_dist::ReadResp              122019                       # Transaction distribution
system.l2bar.trans_dist::WritebackDirty         39722                       # Transaction distribution
system.l2bar.pkt_count_system.dcache.mem_side::system.l2cache.cpu_side       190684                       # Packet count per connected master and slave (bytes)
system.l2bar.pkt_count_system.icache.mem_side::system.l2cache.cpu_side        93076                       # Packet count per connected master and slave (bytes)
system.l2bar.pkt_count::total                  283760                       # Packet count per connected master and slave (bytes)
system.l2bar.pkt_size_system.dcache.mem_side::system.l2cache.cpu_side      7372992                       # Cumulative packet size per connected master and slave (bytes)
system.l2bar.pkt_size_system.icache.mem_side::system.l2cache.cpu_side      2978432                       # Cumulative packet size per connected master and slave (bytes)
system.l2bar.pkt_size::total                 10351424                       # Cumulative packet size per connected master and slave (bytes)
system.l2bar.respLayer1.occupancy           232690000                       # Layer occupancy (ticks)
system.l2bar.respLayer1.utilization               0.8                       # Layer utilization (%)
system.l2bar.reqLayer0.occupancy            320629000                       # Layer occupancy (ticks)
system.l2bar.reqLayer0.utilization                1.1                       # Layer utilization (%)
system.l2bar.respLayer0.occupancy           377405000                       # Layer occupancy (ticks)
system.l2bar.respLayer0.utilization               1.3                       # Layer utilization (%)
system.l2bar.power_state.pwrStateResidencyTicks::UNDEFINED  28998951000                       # Cumulative time (in ticks) in various power states
system.cpu.dtb.walker.power_state.pwrStateResidencyTicks::UNDEFINED  28998951000                       # Cumulative time (in ticks) in various power states
system.cpu.interrupts.clk_domain.clock          16000                       # Clock period in ticks
system.cpu.itb.walker.power_state.pwrStateResidencyTicks::UNDEFINED  28998951000                       # Cumulative time (in ticks) in various power states
system.cpu.power_state.numTransitions               1                       # Number of power state transitions
system.cpu.power_state.pwrStateResidencyTicks::ON  28998951000                       # Cumulative time (in ticks) in various power states

---------- End Simulation Statistics   ----------
