
---------- Begin Simulation Statistics ----------
final_tick                                 6384085000                       # Number of ticks from beginning of simulation (restored from checkpoints and never reset)
host_inst_rate                                  83586                       # Simulator instruction rate (inst/s)
host_mem_usage                               34238792                       # Number of bytes of host memory used
host_op_rate                                   139458                       # Simulator op (including micro ops) rate (op/s)
host_seconds                                    11.96                       # Real time elapsed on the host
host_tick_rate                              533582677                       # Simulator tick rate (ticks/s)
sim_freq                                 1000000000000                       # Frequency of simulated ticks
sim_insts                                     1000050                       # Number of instructions simulated
sim_ops                                       1668544                       # Number of ops (including micro ops) simulated
sim_seconds                                  0.006384                       # Number of seconds simulated
sim_ticks                                  6384085000                       # Number of ticks simulated
system.cpu.Branches                            148314                       # Number of branches fetched
system.cpu.committedInsts                     1000050                       # Number of instructions committed
system.cpu.committedOps                       1668544                       # Number of ops (including micro ops) committed
system.cpu.dtb.rdAccesses                      161924                       # TLB accesses on read requests
system.cpu.dtb.rdMisses                            44                       # TLB misses on read requests
system.cpu.dtb.wrAccesses                      367258                       # TLB accesses on write requests
system.cpu.dtb.wrMisses                          1070                       # TLB misses on write requests
system.cpu.idle_fraction                            0                       # Percentage of idle cycles
system.cpu.itb.rdAccesses                           0                       # TLB accesses on read requests
system.cpu.itb.rdMisses                             0                       # TLB misses on read requests
system.cpu.itb.wrAccesses                     1335853                       # TLB accesses on write requests
system.cpu.itb.wrMisses                            84                       # TLB misses on write requests
system.cpu.not_idle_fraction                        1                       # Percentage of non-idle cycles
system.cpu.numCycles                          6384074                       # number of cpu cycles simulated
system.cpu.numWorkItemsCompleted                    0                       # number of work items this cpu completed
system.cpu.numWorkItemsStarted                      0                       # number of work items this cpu started
system.cpu.num_busy_cycles                    6384074                       # Number of busy cycles
system.cpu.num_cc_register_reads               897152                       # number of times the CC registers were read
system.cpu.num_cc_register_writes              778518                       # number of times the CC registers were written
system.cpu.num_conditional_control_insts       111281                       # number of instructions that are conditional controls
system.cpu.num_fp_alu_accesses                 271916                       # Number of float alu accesses
system.cpu.num_fp_insts                        271916                       # number of float instructions
system.cpu.num_fp_register_reads               268592                       # number of times the floating registers were read
system.cpu.num_fp_register_writes                7053                       # number of times the floating registers were written
system.cpu.num_func_calls                       32285                       # number of times a function call or return occured
system.cpu.num_idle_cycles                          0                       # Number of idle cycles
system.cpu.num_int_alu_accesses               1663090                       # Number of integer alu accesses
system.cpu.num_int_insts                      1663090                       # number of integer instructions
system.cpu.num_int_register_reads             3550379                       # number of times the integer registers were read
system.cpu.num_int_register_writes            1145575                       # number of times the integer registers were written
system.cpu.num_load_insts                      161898                       # Number of load instructions
system.cpu.num_mem_refs                        529154                       # number of memory refs
system.cpu.num_store_insts                     367256                       # Number of store instructions
system.cpu.num_vec_alu_accesses                     0                       # Number of vector alu accesses
system.cpu.num_vec_insts                            0                       # number of vector instructions
system.cpu.num_vec_register_reads                   0                       # number of times the vector registers were read
system.cpu.num_vec_register_writes                  0                       # number of times the vector registers were written
system.cpu.op_class::No_OpClass                   924      0.06%      0.06% # Class of executed instruction
system.cpu.op_class::IntAlu                   1133677     67.92%     67.98% # Class of executed instruction
system.cpu.op_class::IntMult                       10      0.00%     67.98% # Class of executed instruction
system.cpu.op_class::IntDiv                        21      0.00%     67.98% # Class of executed instruction
system.cpu.op_class::FloatAdd                    3232      0.19%     68.17% # Class of executed instruction
system.cpu.op_class::FloatCmp                       0      0.00%     68.17% # Class of executed instruction
system.cpu.op_class::FloatCvt                       0      0.00%     68.17% # Class of executed instruction
system.cpu.op_class::FloatMult                      0      0.00%     68.17% # Class of executed instruction
system.cpu.op_class::FloatMultAcc                   0      0.00%     68.17% # Class of executed instruction
system.cpu.op_class::FloatDiv                       0      0.00%     68.17% # Class of executed instruction
system.cpu.op_class::FloatMisc                      0      0.00%     68.17% # Class of executed instruction
system.cpu.op_class::FloatSqrt                      0      0.00%     68.17% # Class of executed instruction
system.cpu.op_class::SimdAdd                       16      0.00%     68.17% # Class of executed instruction
system.cpu.op_class::SimdAddAcc                     0      0.00%     68.17% # Class of executed instruction
system.cpu.op_class::SimdAlu                      842      0.05%     68.22% # Class of executed instruction
system.cpu.op_class::SimdCmp                        0      0.00%     68.22% # Class of executed instruction
system.cpu.op_class::SimdCvt                      302      0.02%     68.24% # Class of executed instruction
system.cpu.op_class::SimdMisc                     483      0.03%     68.27% # Class of executed instruction
system.cpu.op_class::SimdMult                       0      0.00%     68.27% # Class of executed instruction
system.cpu.op_class::SimdMultAcc                    0      0.00%     68.27% # Class of executed instruction
system.cpu.op_class::SimdShift                      0      0.00%     68.27% # Class of executed instruction
system.cpu.op_class::SimdShiftAcc                   0      0.00%     68.27% # Class of executed instruction
system.cpu.op_class::SimdDiv                        0      0.00%     68.27% # Class of executed instruction
system.cpu.op_class::SimdSqrt                       0      0.00%     68.27% # Class of executed instruction
system.cpu.op_class::SimdFloatAdd                   0      0.00%     68.27% # Class of executed instruction
system.cpu.op_class::SimdFloatAlu                   0      0.00%     68.27% # Class of executed instruction
system.cpu.op_class::SimdFloatCmp                   0      0.00%     68.27% # Class of executed instruction
system.cpu.op_class::SimdFloatCvt                 274      0.02%     68.29% # Class of executed instruction
system.cpu.op_class::SimdFloatDiv                   0      0.00%     68.29% # Class of executed instruction
system.cpu.op_class::SimdFloatMisc                  0      0.00%     68.29% # Class of executed instruction
system.cpu.op_class::SimdFloatMult                137      0.01%     68.30% # Class of executed instruction
system.cpu.op_class::SimdFloatMultAcc               0      0.00%     68.30% # Class of executed instruction
system.cpu.op_class::SimdFloatSqrt                  0      0.00%     68.30% # Class of executed instruction
system.cpu.op_class::SimdReduceAdd                  0      0.00%     68.30% # Class of executed instruction
system.cpu.op_class::SimdReduceAlu                  0      0.00%     68.30% # Class of executed instruction
system.cpu.op_class::SimdReduceCmp                  0      0.00%     68.30% # Class of executed instruction
system.cpu.op_class::SimdFloatReduceAdd             0      0.00%     68.30% # Class of executed instruction
system.cpu.op_class::SimdFloatReduceCmp             0      0.00%     68.30% # Class of executed instruction
system.cpu.op_class::SimdAes                        0      0.00%     68.30% # Class of executed instruction
system.cpu.op_class::SimdAesMix                     0      0.00%     68.30% # Class of executed instruction
system.cpu.op_class::SimdSha1Hash                   0      0.00%     68.30% # Class of executed instruction
system.cpu.op_class::SimdSha1Hash2                  0      0.00%     68.30% # Class of executed instruction
system.cpu.op_class::SimdSha256Hash                 0      0.00%     68.30% # Class of executed instruction
system.cpu.op_class::SimdSha256Hash2                0      0.00%     68.30% # Class of executed instruction
system.cpu.op_class::SimdShaSigma2                  0      0.00%     68.30% # Class of executed instruction
system.cpu.op_class::SimdShaSigma3                  0      0.00%     68.30% # Class of executed instruction
system.cpu.op_class::SimdPredAlu                    0      0.00%     68.30% # Class of executed instruction
system.cpu.op_class::MemRead                   159718      9.57%     77.87% # Class of executed instruction
system.cpu.op_class::MemWrite                  102820      6.16%     84.03% # Class of executed instruction
system.cpu.op_class::FloatMemRead                2180      0.13%     84.16% # Class of executed instruction
system.cpu.op_class::FloatMemWrite             264436     15.84%    100.00% # Class of executed instruction
system.cpu.op_class::IprAccess                      0      0.00%    100.00% # Class of executed instruction
system.cpu.op_class::InstPrefetch                   0      0.00%    100.00% # Class of executed instruction
system.cpu.op_class::total                    1669072                       # Class of executed instruction
system.cpu.workload.numSyscalls                    10                       # Number of system calls
system.dynamic_cache.flushTicks                     0                       # Ticks taken to flush
system.dynamic_cache.numFlushes                     0                       # Number of Flushes Taken
system.cache_small.demand_hits::.cpu.inst         1398                       # number of demand (read+write) hits
system.cache_small.demand_hits::.cpu.data         1258                       # number of demand (read+write) hits
system.cache_small.demand_hits::total            2656                       # number of demand (read+write) hits
system.cache_small.overall_hits::.cpu.inst         1398                       # number of overall hits
system.cache_small.overall_hits::.cpu.data         1258                       # number of overall hits
system.cache_small.overall_hits::total           2656                       # number of overall hits
system.cache_small.demand_misses::.cpu.inst          783                       # number of demand (read+write) misses
system.cache_small.demand_misses::.cpu.data        34370                       # number of demand (read+write) misses
system.cache_small.demand_misses::total         35153                       # number of demand (read+write) misses
system.cache_small.overall_misses::.cpu.inst          783                       # number of overall misses
system.cache_small.overall_misses::.cpu.data        34370                       # number of overall misses
system.cache_small.overall_misses::total        35153                       # number of overall misses
system.cache_small.demand_miss_latency::.cpu.inst     46836000                       # number of demand (read+write) miss cycles
system.cache_small.demand_miss_latency::.cpu.data   1927365000                       # number of demand (read+write) miss cycles
system.cache_small.demand_miss_latency::total   1974201000                       # number of demand (read+write) miss cycles
system.cache_small.overall_miss_latency::.cpu.inst     46836000                       # number of overall miss cycles
system.cache_small.overall_miss_latency::.cpu.data   1927365000                       # number of overall miss cycles
system.cache_small.overall_miss_latency::total   1974201000                       # number of overall miss cycles
system.cache_small.demand_accesses::.cpu.inst         2181                       # number of demand (read+write) accesses
system.cache_small.demand_accesses::.cpu.data        35628                       # number of demand (read+write) accesses
system.cache_small.demand_accesses::total        37809                       # number of demand (read+write) accesses
system.cache_small.overall_accesses::.cpu.inst         2181                       # number of overall (read+write) accesses
system.cache_small.overall_accesses::.cpu.data        35628                       # number of overall (read+write) accesses
system.cache_small.overall_accesses::total        37809                       # number of overall (read+write) accesses
system.cache_small.demand_miss_rate::.cpu.inst     0.359010                       # miss rate for demand accesses
system.cache_small.demand_miss_rate::.cpu.data     0.964691                       # miss rate for demand accesses
system.cache_small.demand_miss_rate::total     0.929752                       # miss rate for demand accesses
system.cache_small.overall_miss_rate::.cpu.inst     0.359010                       # miss rate for overall accesses
system.cache_small.overall_miss_rate::.cpu.data     0.964691                       # miss rate for overall accesses
system.cache_small.overall_miss_rate::total     0.929752                       # miss rate for overall accesses
system.cache_small.demand_avg_miss_latency::.cpu.inst 59816.091954                       # average overall miss latency
system.cache_small.demand_avg_miss_latency::.cpu.data 56076.956648                       # average overall miss latency
system.cache_small.demand_avg_miss_latency::total 56160.242369                       # average overall miss latency
system.cache_small.overall_avg_miss_latency::.cpu.inst 59816.091954                       # average overall miss latency
system.cache_small.overall_avg_miss_latency::.cpu.data 56076.956648                       # average overall miss latency
system.cache_small.overall_avg_miss_latency::total 56160.242369                       # average overall miss latency
system.cache_small.blocked_cycles::no_mshrs            0                       # number of cycles access was blocked
system.cache_small.blocked_cycles::no_targets            0                       # number of cycles access was blocked
system.cache_small.blocked::no_mshrs                0                       # number of cycles access was blocked
system.cache_small.blocked::no_targets              0                       # number of cycles access was blocked
system.cache_small.avg_blocked_cycles::no_mshrs          nan                       # average number of cycles each access was blocked
system.cache_small.avg_blocked_cycles::no_targets          nan                       # average number of cycles each access was blocked
system.cache_small.writebacks::.writebacks         1624                       # number of writebacks
system.cache_small.writebacks::total             1624                       # number of writebacks
system.cache_small.demand_mshr_misses::.cpu.inst          783                       # number of demand (read+write) MSHR misses
system.cache_small.demand_mshr_misses::.cpu.data        34370                       # number of demand (read+write) MSHR misses
system.cache_small.demand_mshr_misses::total        35153                       # number of demand (read+write) MSHR misses
system.cache_small.overall_mshr_misses::.cpu.inst          783                       # number of overall MSHR misses
system.cache_small.overall_mshr_misses::.cpu.data        34370                       # number of overall MSHR misses
system.cache_small.overall_mshr_misses::total        35153                       # number of overall MSHR misses
system.cache_small.demand_mshr_miss_latency::.cpu.inst     45270000                       # number of demand (read+write) MSHR miss cycles
system.cache_small.demand_mshr_miss_latency::.cpu.data   1858625000                       # number of demand (read+write) MSHR miss cycles
system.cache_small.demand_mshr_miss_latency::total   1903895000                       # number of demand (read+write) MSHR miss cycles
system.cache_small.overall_mshr_miss_latency::.cpu.inst     45270000                       # number of overall MSHR miss cycles
system.cache_small.overall_mshr_miss_latency::.cpu.data   1858625000                       # number of overall MSHR miss cycles
system.cache_small.overall_mshr_miss_latency::total   1903895000                       # number of overall MSHR miss cycles
system.cache_small.demand_mshr_miss_rate::.cpu.inst     0.359010                       # mshr miss rate for demand accesses
system.cache_small.demand_mshr_miss_rate::.cpu.data     0.964691                       # mshr miss rate for demand accesses
system.cache_small.demand_mshr_miss_rate::total     0.929752                       # mshr miss rate for demand accesses
system.cache_small.overall_mshr_miss_rate::.cpu.inst     0.359010                       # mshr miss rate for overall accesses
system.cache_small.overall_mshr_miss_rate::.cpu.data     0.964691                       # mshr miss rate for overall accesses
system.cache_small.overall_mshr_miss_rate::total     0.929752                       # mshr miss rate for overall accesses
system.cache_small.demand_avg_mshr_miss_latency::.cpu.inst 57816.091954                       # average overall mshr miss latency
system.cache_small.demand_avg_mshr_miss_latency::.cpu.data 54076.956648                       # average overall mshr miss latency
system.cache_small.demand_avg_mshr_miss_latency::total 54160.242369                       # average overall mshr miss latency
system.cache_small.overall_avg_mshr_miss_latency::.cpu.inst 57816.091954                       # average overall mshr miss latency
system.cache_small.overall_avg_mshr_miss_latency::.cpu.data 54076.956648                       # average overall mshr miss latency
system.cache_small.overall_avg_mshr_miss_latency::total 54160.242369                       # average overall mshr miss latency
system.cache_small.replacements                  2579                       # number of replacements
system.cache_small.ReadReq_hits::.cpu.inst         1398                       # number of ReadReq hits
system.cache_small.ReadReq_hits::.cpu.data         1258                       # number of ReadReq hits
system.cache_small.ReadReq_hits::total           2656                       # number of ReadReq hits
system.cache_small.ReadReq_misses::.cpu.inst          783                       # number of ReadReq misses
system.cache_small.ReadReq_misses::.cpu.data        34370                       # number of ReadReq misses
system.cache_small.ReadReq_misses::total        35153                       # number of ReadReq misses
system.cache_small.ReadReq_miss_latency::.cpu.inst     46836000                       # number of ReadReq miss cycles
system.cache_small.ReadReq_miss_latency::.cpu.data   1927365000                       # number of ReadReq miss cycles
system.cache_small.ReadReq_miss_latency::total   1974201000                       # number of ReadReq miss cycles
system.cache_small.ReadReq_accesses::.cpu.inst         2181                       # number of ReadReq accesses(hits+misses)
system.cache_small.ReadReq_accesses::.cpu.data        35628                       # number of ReadReq accesses(hits+misses)
system.cache_small.ReadReq_accesses::total        37809                       # number of ReadReq accesses(hits+misses)
system.cache_small.ReadReq_miss_rate::.cpu.inst     0.359010                       # miss rate for ReadReq accesses
system.cache_small.ReadReq_miss_rate::.cpu.data     0.964691                       # miss rate for ReadReq accesses
system.cache_small.ReadReq_miss_rate::total     0.929752                       # miss rate for ReadReq accesses
system.cache_small.ReadReq_avg_miss_latency::.cpu.inst 59816.091954                       # average ReadReq miss latency
system.cache_small.ReadReq_avg_miss_latency::.cpu.data 56076.956648                       # average ReadReq miss latency
system.cache_small.ReadReq_avg_miss_latency::total 56160.242369                       # average ReadReq miss latency
system.cache_small.ReadReq_mshr_misses::.cpu.inst          783                       # number of ReadReq MSHR misses
system.cache_small.ReadReq_mshr_misses::.cpu.data        34370                       # number of ReadReq MSHR misses
system.cache_small.ReadReq_mshr_misses::total        35153                       # number of ReadReq MSHR misses
system.cache_small.ReadReq_mshr_miss_latency::.cpu.inst     45270000                       # number of ReadReq MSHR miss cycles
system.cache_small.ReadReq_mshr_miss_latency::.cpu.data   1858625000                       # number of ReadReq MSHR miss cycles
system.cache_small.ReadReq_mshr_miss_latency::total   1903895000                       # number of ReadReq MSHR miss cycles
system.cache_small.ReadReq_mshr_miss_rate::.cpu.inst     0.359010                       # mshr miss rate for ReadReq accesses
system.cache_small.ReadReq_mshr_miss_rate::.cpu.data     0.964691                       # mshr miss rate for ReadReq accesses
system.cache_small.ReadReq_mshr_miss_rate::total     0.929752                       # mshr miss rate for ReadReq accesses
system.cache_small.ReadReq_avg_mshr_miss_latency::.cpu.inst 57816.091954                       # average ReadReq mshr miss latency
system.cache_small.ReadReq_avg_mshr_miss_latency::.cpu.data 54076.956648                       # average ReadReq mshr miss latency
system.cache_small.ReadReq_avg_mshr_miss_latency::total 54160.242369                       # average ReadReq mshr miss latency
system.cache_small.WritebackDirty_hits::.writebacks        34505                       # number of WritebackDirty hits
system.cache_small.WritebackDirty_hits::total        34505                       # number of WritebackDirty hits
system.cache_small.WritebackDirty_accesses::.writebacks        34505                       # number of WritebackDirty accesses(hits+misses)
system.cache_small.WritebackDirty_accesses::total        34505                       # number of WritebackDirty accesses(hits+misses)
system.cache_small.power_state.pwrStateResidencyTicks::UNDEFINED   6384085000                       # Cumulative time (in ticks) in various power states
system.cache_small.tags.tagsinuse        19423.958384                       # Cycle average of tags in use
system.cache_small.tags.total_refs               4679                       # Total number of references to valid blocks.
system.cache_small.tags.sampled_refs             2579                       # Sample count of references to valid blocks.
system.cache_small.tags.avg_refs             1.814269                       # Average number of references to valid blocks.
system.cache_small.tags.warmup_cycle            76000                       # Cycle when the warmup percentage was hit.
system.cache_small.tags.occ_blocks::.writebacks    21.281385                       # Average occupied blocks per requestor
system.cache_small.tags.occ_blocks::.cpu.inst   260.228209                       # Average occupied blocks per requestor
system.cache_small.tags.occ_blocks::.cpu.data 19142.448790                       # Average occupied blocks per requestor
system.cache_small.tags.occ_percent::.writebacks     0.000649                       # Average percentage of cache occupancy
system.cache_small.tags.occ_percent::.cpu.inst     0.007942                       # Average percentage of cache occupancy
system.cache_small.tags.occ_percent::.cpu.data     0.584181                       # Average percentage of cache occupancy
system.cache_small.tags.occ_percent::total     0.592772                       # Average percentage of cache occupancy
system.cache_small.tags.occ_task_id_blocks::1024        32720                       # Occupied blocks per task id
system.cache_small.tags.age_task_id_blocks_1024::2          191                       # Occupied blocks per task id
system.cache_small.tags.age_task_id_blocks_1024::3        32529                       # Occupied blocks per task id
system.cache_small.tags.occ_task_id_percent::1024     0.998535                       # Percentage of cache occupancy per task id
system.cache_small.tags.tag_accesses           107613                       # Number of tag accesses
system.cache_small.tags.data_accesses          107613                       # Number of data accesses
system.cache_small.tags.power_state.pwrStateResidencyTicks::UNDEFINED   6384085000                       # Cumulative time (in ticks) in various power states
system.icache.demand_hits::.cpu.inst          1330368                       # number of demand (read+write) hits
system.icache.demand_hits::total              1330368                       # number of demand (read+write) hits
system.icache.overall_hits::.cpu.inst         1330368                       # number of overall hits
system.icache.overall_hits::total             1330368                       # number of overall hits
system.icache.demand_misses::.cpu.inst           5485                       # number of demand (read+write) misses
system.icache.demand_misses::total               5485                       # number of demand (read+write) misses
system.icache.overall_misses::.cpu.inst          5485                       # number of overall misses
system.icache.overall_misses::total              5485                       # number of overall misses
system.icache.demand_miss_latency::.cpu.inst    136318000                       # number of demand (read+write) miss cycles
system.icache.demand_miss_latency::total    136318000                       # number of demand (read+write) miss cycles
system.icache.overall_miss_latency::.cpu.inst    136318000                       # number of overall miss cycles
system.icache.overall_miss_latency::total    136318000                       # number of overall miss cycles
system.icache.demand_accesses::.cpu.inst      1335853                       # number of demand (read+write) accesses
system.icache.demand_accesses::total          1335853                       # number of demand (read+write) accesses
system.icache.overall_accesses::.cpu.inst      1335853                       # number of overall (read+write) accesses
system.icache.overall_accesses::total         1335853                       # number of overall (read+write) accesses
system.icache.demand_miss_rate::.cpu.inst     0.004106                       # miss rate for demand accesses
system.icache.demand_miss_rate::total        0.004106                       # miss rate for demand accesses
system.icache.overall_miss_rate::.cpu.inst     0.004106                       # miss rate for overall accesses
system.icache.overall_miss_rate::total       0.004106                       # miss rate for overall accesses
system.icache.demand_avg_miss_latency::.cpu.inst 24852.871468                       # average overall miss latency
system.icache.demand_avg_miss_latency::total 24852.871468                       # average overall miss latency
system.icache.overall_avg_miss_latency::.cpu.inst 24852.871468                       # average overall miss latency
system.icache.overall_avg_miss_latency::total 24852.871468                       # average overall miss latency
system.icache.blocked_cycles::no_mshrs              0                       # number of cycles access was blocked
system.icache.blocked_cycles::no_targets            0                       # number of cycles access was blocked
system.icache.blocked::no_mshrs                     0                       # number of cycles access was blocked
system.icache.blocked::no_targets                   0                       # number of cycles access was blocked
system.icache.avg_blocked_cycles::no_mshrs          nan                       # average number of cycles each access was blocked
system.icache.avg_blocked_cycles::no_targets          nan                       # average number of cycles each access was blocked
system.icache.demand_mshr_misses::.cpu.inst         5485                       # number of demand (read+write) MSHR misses
system.icache.demand_mshr_misses::total          5485                       # number of demand (read+write) MSHR misses
system.icache.overall_mshr_misses::.cpu.inst         5485                       # number of overall MSHR misses
system.icache.overall_mshr_misses::total         5485                       # number of overall MSHR misses
system.icache.demand_mshr_miss_latency::.cpu.inst    125348000                       # number of demand (read+write) MSHR miss cycles
system.icache.demand_mshr_miss_latency::total    125348000                       # number of demand (read+write) MSHR miss cycles
system.icache.overall_mshr_miss_latency::.cpu.inst    125348000                       # number of overall MSHR miss cycles
system.icache.overall_mshr_miss_latency::total    125348000                       # number of overall MSHR miss cycles
system.icache.demand_mshr_miss_rate::.cpu.inst     0.004106                       # mshr miss rate for demand accesses
system.icache.demand_mshr_miss_rate::total     0.004106                       # mshr miss rate for demand accesses
system.icache.overall_mshr_miss_rate::.cpu.inst     0.004106                       # mshr miss rate for overall accesses
system.icache.overall_mshr_miss_rate::total     0.004106                       # mshr miss rate for overall accesses
system.icache.demand_avg_mshr_miss_latency::.cpu.inst 22852.871468                       # average overall mshr miss latency
system.icache.demand_avg_mshr_miss_latency::total 22852.871468                       # average overall mshr miss latency
system.icache.overall_avg_mshr_miss_latency::.cpu.inst 22852.871468                       # average overall mshr miss latency
system.icache.overall_avg_mshr_miss_latency::total 22852.871468                       # average overall mshr miss latency
system.icache.replacements                       5251                       # number of replacements
system.icache.ReadReq_hits::.cpu.inst         1330368                       # number of ReadReq hits
system.icache.ReadReq_hits::total             1330368                       # number of ReadReq hits
system.icache.ReadReq_misses::.cpu.inst          5485                       # number of ReadReq misses
system.icache.ReadReq_misses::total              5485                       # number of ReadReq misses
system.icache.ReadReq_miss_latency::.cpu.inst    136318000                       # number of ReadReq miss cycles
system.icache.ReadReq_miss_latency::total    136318000                       # number of ReadReq miss cycles
system.icache.ReadReq_accesses::.cpu.inst      1335853                       # number of ReadReq accesses(hits+misses)
system.icache.ReadReq_accesses::total         1335853                       # number of ReadReq accesses(hits+misses)
system.icache.ReadReq_miss_rate::.cpu.inst     0.004106                       # miss rate for ReadReq accesses
system.icache.ReadReq_miss_rate::total       0.004106                       # miss rate for ReadReq accesses
system.icache.ReadReq_avg_miss_latency::.cpu.inst 24852.871468                       # average ReadReq miss latency
system.icache.ReadReq_avg_miss_latency::total 24852.871468                       # average ReadReq miss latency
system.icache.ReadReq_mshr_misses::.cpu.inst         5485                       # number of ReadReq MSHR misses
system.icache.ReadReq_mshr_misses::total         5485                       # number of ReadReq MSHR misses
system.icache.ReadReq_mshr_miss_latency::.cpu.inst    125348000                       # number of ReadReq MSHR miss cycles
system.icache.ReadReq_mshr_miss_latency::total    125348000                       # number of ReadReq MSHR miss cycles
system.icache.ReadReq_mshr_miss_rate::.cpu.inst     0.004106                       # mshr miss rate for ReadReq accesses
system.icache.ReadReq_mshr_miss_rate::total     0.004106                       # mshr miss rate for ReadReq accesses
system.icache.ReadReq_avg_mshr_miss_latency::.cpu.inst 22852.871468                       # average ReadReq mshr miss latency
system.icache.ReadReq_avg_mshr_miss_latency::total 22852.871468                       # average ReadReq mshr miss latency
system.icache.power_state.pwrStateResidencyTicks::UNDEFINED   6384085000                       # Cumulative time (in ticks) in various power states
system.icache.tags.tagsinuse               231.230423                       # Cycle average of tags in use
system.icache.tags.total_refs                  255412                       # Total number of references to valid blocks.
system.icache.tags.sampled_refs                  5251                       # Sample count of references to valid blocks.
system.icache.tags.avg_refs                 48.640640                       # Average number of references to valid blocks.
system.icache.tags.warmup_cycle                 82000                       # Cycle when the warmup percentage was hit.
system.icache.tags.occ_blocks::.cpu.inst   231.230423                       # Average occupied blocks per requestor
system.icache.tags.occ_percent::.cpu.inst     0.903244                       # Average percentage of cache occupancy
system.icache.tags.occ_percent::total        0.903244                       # Average percentage of cache occupancy
system.icache.tags.occ_task_id_blocks::1024          234                       # Occupied blocks per task id
system.icache.tags.age_task_id_blocks_1024::0            2                       # Occupied blocks per task id
system.icache.tags.age_task_id_blocks_1024::2           24                       # Occupied blocks per task id
system.icache.tags.age_task_id_blocks_1024::3          208                       # Occupied blocks per task id
system.icache.tags.occ_task_id_percent::1024     0.914062                       # Percentage of cache occupancy per task id
system.icache.tags.tag_accesses               1341338                       # Number of tag accesses
system.icache.tags.data_accesses              1341338                       # Number of data accesses
system.icache.tags.power_state.pwrStateResidencyTicks::UNDEFINED   6384085000                       # Cumulative time (in ticks) in various power states
system.membus.trans_dist::ReadReq               35153                       # Transaction distribution
system.membus.trans_dist::ReadResp              35153                       # Transaction distribution
system.membus.trans_dist::WritebackDirty         1624                       # Transaction distribution
system.membus.pkt_count_system.cache_small.mem_side::system.mem_ctrl.port        71930                       # Packet count per connected master and slave (bytes)
system.membus.pkt_count_system.cache_small.mem_side::total        71930                       # Packet count per connected master and slave (bytes)
system.membus.pkt_count::total                  71930                       # Packet count per connected master and slave (bytes)
system.membus.pkt_size_system.cache_small.mem_side::system.mem_ctrl.port      2353728                       # Cumulative packet size per connected master and slave (bytes)
system.membus.pkt_size_system.cache_small.mem_side::total      2353728                       # Cumulative packet size per connected master and slave (bytes)
system.membus.pkt_size::total                 2353728                       # Cumulative packet size per connected master and slave (bytes)
system.membus.reqLayer2.occupancy            43273000                       # Layer occupancy (ticks)
system.membus.reqLayer2.utilization               0.7                       # Layer utilization (%)
system.membus.respLayer1.occupancy          185320500                       # Layer occupancy (ticks)
system.membus.respLayer1.utilization              2.9                       # Layer utilization (%)
system.membus.power_state.pwrStateResidencyTicks::UNDEFINED   6384085000                       # Cumulative time (in ticks) in various power states
system.mem_ctrl.bytes_read::.cpu.inst           50112                       # Number of bytes read from this memory
system.mem_ctrl.bytes_read::.cpu.data         2199680                       # Number of bytes read from this memory
system.mem_ctrl.bytes_read::total             2249792                       # Number of bytes read from this memory
system.mem_ctrl.bytes_inst_read::.cpu.inst        50112                       # Number of instructions bytes read from this memory
system.mem_ctrl.bytes_inst_read::total          50112                       # Number of instructions bytes read from this memory
system.mem_ctrl.bytes_written::.writebacks       103936                       # Number of bytes written to this memory
system.mem_ctrl.bytes_written::total           103936                       # Number of bytes written to this memory
system.mem_ctrl.num_reads::.cpu.inst              783                       # Number of read requests responded to by this memory
system.mem_ctrl.num_reads::.cpu.data            34370                       # Number of read requests responded to by this memory
system.mem_ctrl.num_reads::total                35153                       # Number of read requests responded to by this memory
system.mem_ctrl.num_writes::.writebacks          1624                       # Number of write requests responded to by this memory
system.mem_ctrl.num_writes::total                1624                       # Number of write requests responded to by this memory
system.mem_ctrl.bw_read::.cpu.inst            7849520                       # Total read bandwidth from this memory (bytes/s)
system.mem_ctrl.bw_read::.cpu.data          344556816                       # Total read bandwidth from this memory (bytes/s)
system.mem_ctrl.bw_read::total              352406335                       # Total read bandwidth from this memory (bytes/s)
system.mem_ctrl.bw_inst_read::.cpu.inst       7849520                       # Instruction read bandwidth from this memory (bytes/s)
system.mem_ctrl.bw_inst_read::total           7849520                       # Instruction read bandwidth from this memory (bytes/s)
system.mem_ctrl.bw_write::.writebacks        16280485                       # Write bandwidth from this memory (bytes/s)
system.mem_ctrl.bw_write::total              16280485                       # Write bandwidth from this memory (bytes/s)
system.mem_ctrl.bw_total::.writebacks        16280485                       # Total bandwidth to/from this memory (bytes/s)
system.mem_ctrl.bw_total::.cpu.inst           7849520                       # Total bandwidth to/from this memory (bytes/s)
system.mem_ctrl.bw_total::.cpu.data         344556816                       # Total bandwidth to/from this memory (bytes/s)
system.mem_ctrl.bw_total::total             368686820                       # Total bandwidth to/from this memory (bytes/s)
system.mem_ctrl.avgPriority_.writebacks::samples      1624.00                       # Average QoS priority value for accepted requests
system.mem_ctrl.avgPriority_.cpu.inst::samples       783.00                       # Average QoS priority value for accepted requests
system.mem_ctrl.avgPriority_.cpu.data::samples     34368.00                       # Average QoS priority value for accepted requests
system.mem_ctrl.priorityMinLatency       0.000000018750                       # per QoS priority minimum request to response latency (s)
system.mem_ctrl.priorityMaxLatency       0.008110282500                       # per QoS priority maximum request to response latency (s)
system.mem_ctrl.numReadWriteTurnArounds            94                       # Number of turnarounds from READ to WRITE
system.mem_ctrl.numWriteReadTurnArounds            94                       # Number of turnarounds from WRITE to READ
system.mem_ctrl.numStayReadState                73506                       # Number of times bus staying in READ state
system.mem_ctrl.numStayWriteState                1508                       # Number of times bus staying in WRITE state
system.mem_ctrl.readReqs                        35153                       # Number of read requests accepted
system.mem_ctrl.writeReqs                        1624                       # Number of write requests accepted
system.mem_ctrl.readBursts                      35153                       # Number of DRAM read bursts, including those serviced by the write queue
system.mem_ctrl.writeBursts                      1624                       # Number of DRAM write bursts, including those merged in the write queue
system.mem_ctrl.servicedByWrQ                       2                       # Number of DRAM read bursts serviced by the write queue
system.mem_ctrl.mergedWrBursts                      0                       # Number of DRAM write bursts merged with an existing one
system.mem_ctrl.neitherReadNorWriteReqs             0                       # Number of requests that are neither read nor write
system.mem_ctrl.perBankRdBursts::0               2209                       # Per bank write bursts
system.mem_ctrl.perBankRdBursts::1               2300                       # Per bank write bursts
system.mem_ctrl.perBankRdBursts::2               2329                       # Per bank write bursts
system.mem_ctrl.perBankRdBursts::3               2339                       # Per bank write bursts
system.mem_ctrl.perBankRdBursts::4               2410                       # Per bank write bursts
system.mem_ctrl.perBankRdBursts::5               2227                       # Per bank write bursts
system.mem_ctrl.perBankRdBursts::6               2189                       # Per bank write bursts
system.mem_ctrl.perBankRdBursts::7               2164                       # Per bank write bursts
system.mem_ctrl.perBankRdBursts::8               2074                       # Per bank write bursts
system.mem_ctrl.perBankRdBursts::9               2077                       # Per bank write bursts
system.mem_ctrl.perBankRdBursts::10              2156                       # Per bank write bursts
system.mem_ctrl.perBankRdBursts::11              2095                       # Per bank write bursts
system.mem_ctrl.perBankRdBursts::12              2158                       # Per bank write bursts
system.mem_ctrl.perBankRdBursts::13              2155                       # Per bank write bursts
system.mem_ctrl.perBankRdBursts::14              2100                       # Per bank write bursts
system.mem_ctrl.perBankRdBursts::15              2169                       # Per bank write bursts
system.mem_ctrl.perBankWrBursts::0                130                       # Per bank write bursts
system.mem_ctrl.perBankWrBursts::1                234                       # Per bank write bursts
system.mem_ctrl.perBankWrBursts::2                221                       # Per bank write bursts
system.mem_ctrl.perBankWrBursts::3                271                       # Per bank write bursts
system.mem_ctrl.perBankWrBursts::4                184                       # Per bank write bursts
system.mem_ctrl.perBankWrBursts::5                128                       # Per bank write bursts
system.mem_ctrl.perBankWrBursts::6                103                       # Per bank write bursts
system.mem_ctrl.perBankWrBursts::7                 87                       # Per bank write bursts
system.mem_ctrl.perBankWrBursts::8                  0                       # Per bank write bursts
system.mem_ctrl.perBankWrBursts::9                  7                       # Per bank write bursts
system.mem_ctrl.perBankWrBursts::10                42                       # Per bank write bursts
system.mem_ctrl.perBankWrBursts::11                 6                       # Per bank write bursts
system.mem_ctrl.perBankWrBursts::12                38                       # Per bank write bursts
system.mem_ctrl.perBankWrBursts::13                59                       # Per bank write bursts
system.mem_ctrl.perBankWrBursts::14                24                       # Per bank write bursts
system.mem_ctrl.perBankWrBursts::15                65                       # Per bank write bursts
system.mem_ctrl.avgRdQLen                        1.00                       # Average read queue length when enqueuing
system.mem_ctrl.avgWrQLen                       11.12                       # Average write queue length when enqueuing
system.mem_ctrl.totQLat                     145534250                       # Total ticks spent queuing
system.mem_ctrl.totBusLat                   175755000                       # Total ticks spent in databus transfers
system.mem_ctrl.totMemAccLat                804615500                       # Total ticks spent from burst creation until serviced by the DRAM
system.mem_ctrl.avgQLat                       4140.26                       # Average queueing delay per DRAM burst
system.mem_ctrl.avgBusLat                     5000.00                       # Average bus latency per DRAM burst
system.mem_ctrl.avgMemAccLat                 22890.26                       # Average memory access latency per DRAM burst
system.mem_ctrl.numRdRetry                          0                       # Number of times read queue was full causing retry
system.mem_ctrl.numWrRetry                          0                       # Number of times write queue was full causing retry
system.mem_ctrl.readRowHits                     32003                       # Number of row buffer hits during reads
system.mem_ctrl.writeRowHits                     1424                       # Number of row buffer hits during writes
system.mem_ctrl.readRowHitRate                  91.04                       # Row buffer hit rate for reads
system.mem_ctrl.writeRowHitRate                 87.68                       # Row buffer hit rate for writes
system.mem_ctrl.readPktSize::0                      0                       # Read request sizes (log2)
system.mem_ctrl.readPktSize::1                      0                       # Read request sizes (log2)
system.mem_ctrl.readPktSize::2                      0                       # Read request sizes (log2)
system.mem_ctrl.readPktSize::3                      0                       # Read request sizes (log2)
system.mem_ctrl.readPktSize::4                      0                       # Read request sizes (log2)
system.mem_ctrl.readPktSize::5                      0                       # Read request sizes (log2)
system.mem_ctrl.readPktSize::6                  35153                       # Read request sizes (log2)
system.mem_ctrl.writePktSize::0                     0                       # Write request sizes (log2)
system.mem_ctrl.writePktSize::1                     0                       # Write request sizes (log2)
system.mem_ctrl.writePktSize::2                     0                       # Write request sizes (log2)
system.mem_ctrl.writePktSize::3                     0                       # Write request sizes (log2)
system.mem_ctrl.writePktSize::4                     0                       # Write request sizes (log2)
system.mem_ctrl.writePktSize::5                     0                       # Write request sizes (log2)
system.mem_ctrl.writePktSize::6                  1624                       # Write request sizes (log2)
system.mem_ctrl.rdQLenPdf::0                    35149                       # What read queue length does an incoming req see
system.mem_ctrl.rdQLenPdf::1                        2                       # What read queue length does an incoming req see
system.mem_ctrl.rdQLenPdf::2                        0                       # What read queue length does an incoming req see
system.mem_ctrl.rdQLenPdf::3                        0                       # What read queue length does an incoming req see
system.mem_ctrl.rdQLenPdf::4                        0                       # What read queue length does an incoming req see
system.mem_ctrl.rdQLenPdf::5                        0                       # What read queue length does an incoming req see
system.mem_ctrl.rdQLenPdf::6                        0                       # What read queue length does an incoming req see
system.mem_ctrl.rdQLenPdf::7                        0                       # What read queue length does an incoming req see
system.mem_ctrl.rdQLenPdf::8                        0                       # What read queue length does an incoming req see
system.mem_ctrl.rdQLenPdf::9                        0                       # What read queue length does an incoming req see
system.mem_ctrl.rdQLenPdf::10                       0                       # What read queue length does an incoming req see
system.mem_ctrl.rdQLenPdf::11                       0                       # What read queue length does an incoming req see
system.mem_ctrl.rdQLenPdf::12                       0                       # What read queue length does an incoming req see
system.mem_ctrl.rdQLenPdf::13                       0                       # What read queue length does an incoming req see
system.mem_ctrl.rdQLenPdf::14                       0                       # What read queue length does an incoming req see
system.mem_ctrl.rdQLenPdf::15                       0                       # What read queue length does an incoming req see
system.mem_ctrl.rdQLenPdf::16                       0                       # What read queue length does an incoming req see
system.mem_ctrl.rdQLenPdf::17                       0                       # What read queue length does an incoming req see
system.mem_ctrl.rdQLenPdf::18                       0                       # What read queue length does an incoming req see
system.mem_ctrl.rdQLenPdf::19                       0                       # What read queue length does an incoming req see
system.mem_ctrl.rdQLenPdf::20                       0                       # What read queue length does an incoming req see
system.mem_ctrl.rdQLenPdf::21                       0                       # What read queue length does an incoming req see
system.mem_ctrl.rdQLenPdf::22                       0                       # What read queue length does an incoming req see
system.mem_ctrl.rdQLenPdf::23                       0                       # What read queue length does an incoming req see
system.mem_ctrl.rdQLenPdf::24                       0                       # What read queue length does an incoming req see
system.mem_ctrl.rdQLenPdf::25                       0                       # What read queue length does an incoming req see
system.mem_ctrl.rdQLenPdf::26                       0                       # What read queue length does an incoming req see
system.mem_ctrl.rdQLenPdf::27                       0                       # What read queue length does an incoming req see
system.mem_ctrl.rdQLenPdf::28                       0                       # What read queue length does an incoming req see
system.mem_ctrl.rdQLenPdf::29                       0                       # What read queue length does an incoming req see
system.mem_ctrl.rdQLenPdf::30                       0                       # What read queue length does an incoming req see
system.mem_ctrl.rdQLenPdf::31                       0                       # What read queue length does an incoming req see
system.mem_ctrl.wrQLenPdf::0                        1                       # What write queue length does an incoming req see
system.mem_ctrl.wrQLenPdf::1                        1                       # What write queue length does an incoming req see
system.mem_ctrl.wrQLenPdf::2                        1                       # What write queue length does an incoming req see
system.mem_ctrl.wrQLenPdf::3                        1                       # What write queue length does an incoming req see
system.mem_ctrl.wrQLenPdf::4                        1                       # What write queue length does an incoming req see
system.mem_ctrl.wrQLenPdf::5                        1                       # What write queue length does an incoming req see
system.mem_ctrl.wrQLenPdf::6                        1                       # What write queue length does an incoming req see
system.mem_ctrl.wrQLenPdf::7                        1                       # What write queue length does an incoming req see
system.mem_ctrl.wrQLenPdf::8                        1                       # What write queue length does an incoming req see
system.mem_ctrl.wrQLenPdf::9                        1                       # What write queue length does an incoming req see
system.mem_ctrl.wrQLenPdf::10                       1                       # What write queue length does an incoming req see
system.mem_ctrl.wrQLenPdf::11                       1                       # What write queue length does an incoming req see
system.mem_ctrl.wrQLenPdf::12                       1                       # What write queue length does an incoming req see
system.mem_ctrl.wrQLenPdf::13                       1                       # What write queue length does an incoming req see
system.mem_ctrl.wrQLenPdf::14                       1                       # What write queue length does an incoming req see
system.mem_ctrl.wrQLenPdf::15                      45                       # What write queue length does an incoming req see
system.mem_ctrl.wrQLenPdf::16                      47                       # What write queue length does an incoming req see
system.mem_ctrl.wrQLenPdf::17                      95                       # What write queue length does an incoming req see
system.mem_ctrl.wrQLenPdf::18                      95                       # What write queue length does an incoming req see
system.mem_ctrl.wrQLenPdf::19                      95                       # What write queue length does an incoming req see
system.mem_ctrl.wrQLenPdf::20                      95                       # What write queue length does an incoming req see
system.mem_ctrl.wrQLenPdf::21                      96                       # What write queue length does an incoming req see
system.mem_ctrl.wrQLenPdf::22                      95                       # What write queue length does an incoming req see
system.mem_ctrl.wrQLenPdf::23                      95                       # What write queue length does an incoming req see
system.mem_ctrl.wrQLenPdf::24                      95                       # What write queue length does an incoming req see
system.mem_ctrl.wrQLenPdf::25                      94                       # What write queue length does an incoming req see
system.mem_ctrl.wrQLenPdf::26                      94                       # What write queue length does an incoming req see
system.mem_ctrl.wrQLenPdf::27                      95                       # What write queue length does an incoming req see
system.mem_ctrl.wrQLenPdf::28                      94                       # What write queue length does an incoming req see
system.mem_ctrl.wrQLenPdf::29                      95                       # What write queue length does an incoming req see
system.mem_ctrl.wrQLenPdf::30                      94                       # What write queue length does an incoming req see
system.mem_ctrl.wrQLenPdf::31                      94                       # What write queue length does an incoming req see
system.mem_ctrl.wrQLenPdf::32                      94                       # What write queue length does an incoming req see
system.mem_ctrl.wrQLenPdf::33                       1                       # What write queue length does an incoming req see
system.mem_ctrl.wrQLenPdf::34                       1                       # What write queue length does an incoming req see
system.mem_ctrl.wrQLenPdf::35                       0                       # What write queue length does an incoming req see
system.mem_ctrl.wrQLenPdf::36                       0                       # What write queue length does an incoming req see
system.mem_ctrl.wrQLenPdf::37                       0                       # What write queue length does an incoming req see
system.mem_ctrl.wrQLenPdf::38                       0                       # What write queue length does an incoming req see
system.mem_ctrl.wrQLenPdf::39                       0                       # What write queue length does an incoming req see
system.mem_ctrl.wrQLenPdf::40                       0                       # What write queue length does an incoming req see
system.mem_ctrl.wrQLenPdf::41                       0                       # What write queue length does an incoming req see
system.mem_ctrl.wrQLenPdf::42                       0                       # What write queue length does an incoming req see
system.mem_ctrl.wrQLenPdf::43                       0                       # What write queue length does an incoming req see
system.mem_ctrl.wrQLenPdf::44                       0                       # What write queue length does an incoming req see
system.mem_ctrl.wrQLenPdf::45                       0                       # What write queue length does an incoming req see
system.mem_ctrl.wrQLenPdf::46                       0                       # What write queue length does an incoming req see
system.mem_ctrl.wrQLenPdf::47                       0                       # What write queue length does an incoming req see
system.mem_ctrl.wrQLenPdf::48                       0                       # What write queue length does an incoming req see
system.mem_ctrl.wrQLenPdf::49                       0                       # What write queue length does an incoming req see
system.mem_ctrl.wrQLenPdf::50                       0                       # What write queue length does an incoming req see
system.mem_ctrl.wrQLenPdf::51                       0                       # What write queue length does an incoming req see
system.mem_ctrl.wrQLenPdf::52                       0                       # What write queue length does an incoming req see
system.mem_ctrl.wrQLenPdf::53                       0                       # What write queue length does an incoming req see
system.mem_ctrl.wrQLenPdf::54                       0                       # What write queue length does an incoming req see
system.mem_ctrl.wrQLenPdf::55                       0                       # What write queue length does an incoming req see
system.mem_ctrl.wrQLenPdf::56                       0                       # What write queue length does an incoming req see
system.mem_ctrl.wrQLenPdf::57                       0                       # What write queue length does an incoming req see
system.mem_ctrl.wrQLenPdf::58                       0                       # What write queue length does an incoming req see
system.mem_ctrl.wrQLenPdf::59                       0                       # What write queue length does an incoming req see
system.mem_ctrl.wrQLenPdf::60                       0                       # What write queue length does an incoming req see
system.mem_ctrl.wrQLenPdf::61                       0                       # What write queue length does an incoming req see
system.mem_ctrl.wrQLenPdf::62                       0                       # What write queue length does an incoming req see
system.mem_ctrl.wrQLenPdf::63                       0                       # What write queue length does an incoming req see
system.mem_ctrl.bytesPerActivate::samples         3323                       # Bytes accessed per row activation
system.mem_ctrl.bytesPerActivate::mean     707.794162                       # Bytes accessed per row activation
system.mem_ctrl.bytesPerActivate::gmean    530.486750                       # Bytes accessed per row activation
system.mem_ctrl.bytesPerActivate::stdev    378.950254                       # Bytes accessed per row activation
system.mem_ctrl.bytesPerActivate::0-127           317      9.54%      9.54% # Bytes accessed per row activation
system.mem_ctrl.bytesPerActivate::128-255          293      8.82%     18.36% # Bytes accessed per row activation
system.mem_ctrl.bytesPerActivate::256-383          335     10.08%     28.44% # Bytes accessed per row activation
system.mem_ctrl.bytesPerActivate::384-511          115      3.46%     31.90% # Bytes accessed per row activation
system.mem_ctrl.bytesPerActivate::512-639          276      8.31%     40.20% # Bytes accessed per row activation
system.mem_ctrl.bytesPerActivate::640-767           71      2.14%     42.34% # Bytes accessed per row activation
system.mem_ctrl.bytesPerActivate::768-895           77      2.32%     44.66% # Bytes accessed per row activation
system.mem_ctrl.bytesPerActivate::896-1023           68      2.05%     46.70% # Bytes accessed per row activation
system.mem_ctrl.bytesPerActivate::1024-1151         1771     53.30%    100.00% # Bytes accessed per row activation
system.mem_ctrl.bytesPerActivate::total          3323                       # Bytes accessed per row activation
system.mem_ctrl.rdPerTurnAround::samples           94                       # Reads before turning the bus around for writes
system.mem_ctrl.rdPerTurnAround::mean      373.829787                       # Reads before turning the bus around for writes
system.mem_ctrl.rdPerTurnAround::gmean      21.430162                       # Reads before turning the bus around for writes
system.mem_ctrl.rdPerTurnAround::stdev    3350.787424                       # Reads before turning the bus around for writes
system.mem_ctrl.rdPerTurnAround::0-1023            93     98.94%     98.94% # Reads before turning the bus around for writes
system.mem_ctrl.rdPerTurnAround::31744-32767            1      1.06%    100.00% # Reads before turning the bus around for writes
system.mem_ctrl.rdPerTurnAround::total             94                       # Reads before turning the bus around for writes
system.mem_ctrl.wrPerTurnAround::samples           94                       # Writes before turning the bus around for reads
system.mem_ctrl.wrPerTurnAround::mean       17.010638                       # Writes before turning the bus around for reads
system.mem_ctrl.wrPerTurnAround::gmean      16.975839                       # Writes before turning the bus around for reads
system.mem_ctrl.wrPerTurnAround::stdev       1.102243                       # Writes before turning the bus around for reads
system.mem_ctrl.wrPerTurnAround::16                49     52.13%     52.13% # Writes before turning the bus around for reads
system.mem_ctrl.wrPerTurnAround::18                42     44.68%     96.81% # Writes before turning the bus around for reads
system.mem_ctrl.wrPerTurnAround::19                 1      1.06%     97.87% # Writes before turning the bus around for reads
system.mem_ctrl.wrPerTurnAround::20                 2      2.13%    100.00% # Writes before turning the bus around for reads
system.mem_ctrl.wrPerTurnAround::total             94                       # Writes before turning the bus around for reads
system.mem_ctrl.bytesReadDRAM                 2249664                       # Total number of bytes read from DRAM
system.mem_ctrl.bytesReadWrQ                      128                       # Total number of bytes read from write queue
system.mem_ctrl.bytesWritten                   102336                       # Total number of bytes written to DRAM
system.mem_ctrl.bytesReadSys                  2249792                       # Total read bytes from the system interface side
system.mem_ctrl.bytesWrittenSys                103936                       # Total written bytes from the system interface side
system.mem_ctrl.avgRdBW                        352.39                       # Average DRAM read bandwidth in MiByte/s
system.mem_ctrl.avgWrBW                         16.03                       # Average achieved write bandwidth in MiByte/s
system.mem_ctrl.avgRdBWSys                     352.41                       # Average system read bandwidth in MiByte/s
system.mem_ctrl.avgWrBWSys                      16.28                       # Average system write bandwidth in MiByte/s
system.mem_ctrl.peakBW                       12800.00                       # Theoretical peak bandwidth in MiByte/s
system.mem_ctrl.busUtil                          2.88                       # Data bus utilization in percentage
system.mem_ctrl.busUtilRead                      2.75                       # Data bus utilization in percentage for reads
system.mem_ctrl.busUtilWrite                     0.13                       # Data bus utilization in percentage for writes
system.mem_ctrl.totGap                     6233851000                       # Total gap between requests
system.mem_ctrl.avgGap                      169504.07                       # Average gap between requests
system.mem_ctrl.masterReadBytes::.cpu.inst        50112                       # Per-master bytes read from memory
system.mem_ctrl.masterReadBytes::.cpu.data      2199552                       # Per-master bytes read from memory
system.mem_ctrl.masterWriteBytes::.writebacks       102336                       # Per-master bytes write to memory
system.mem_ctrl.masterReadRate::.cpu.inst 7849519.547437103465                       # Per-master bytes read from memory rate (Bytes/sec)
system.mem_ctrl.masterReadRate::.cpu.data 344536766.036166489124                       # Per-master bytes read from memory rate (Bytes/sec)
system.mem_ctrl.masterWriteRate::.writebacks 16029861.757793011144                       # Per-master bytes write to memory rate (Bytes/sec)
system.mem_ctrl.masterReadAccesses::.cpu.inst          783                       # Per-master read serviced memory accesses
system.mem_ctrl.masterReadAccesses::.cpu.data        34370                       # Per-master read serviced memory accesses
system.mem_ctrl.masterWriteAccesses::.writebacks         1624                       # Per-master write serviced memory accesses
system.mem_ctrl.masterReadTotalLat::.cpu.inst     20734500                       # Per-master read total memory access latency
system.mem_ctrl.masterReadTotalLat::.cpu.data    783881000                       # Per-master read total memory access latency
system.mem_ctrl.masterWriteTotalLat::.writebacks  52222719750                       # Per-master write total memory access latency
system.mem_ctrl.masterReadAvgLat::.cpu.inst     26480.84                       # Per-master read average memory access latency
system.mem_ctrl.masterReadAvgLat::.cpu.data     22807.13                       # Per-master read average memory access latency
system.mem_ctrl.masterWriteAvgLat::.writebacks  32156847.14                       # Per-master write average memory access latency
system.mem_ctrl.pageHitRate                     90.90                       # Row buffer hit rate, read and write combined
system.mem_ctrl.rank1.actEnergy              10103100                       # Energy for activate commands per rank (pJ)
system.mem_ctrl.rank1.preEnergy               5369925                       # Energy for precharge commands per rank (pJ)
system.mem_ctrl.rank1.readEnergy            121265760                       # Energy for read commands per rank (pJ)
system.mem_ctrl.rank1.writeEnergy             1258020                       # Energy for write commands per rank (pJ)
system.mem_ctrl.rank1.refreshEnergy      503390160.000000                       # Energy for refresh commands per rank (pJ)
system.mem_ctrl.rank1.actBackEnergy        1037826930                       # Energy for active background per rank (pJ)
system.mem_ctrl.rank1.preBackEnergy        1577529120                       # Energy for precharge background per rank (pJ)
system.mem_ctrl.rank1.actPowerDownEnergy            0                       # Energy for active power-down per rank (pJ)
system.mem_ctrl.rank1.prePowerDownEnergy            0                       # Energy for precharge power-down per rank (pJ)
system.mem_ctrl.rank1.selfRefreshEnergy             0                       # Energy for self refresh per rank (pJ)
system.mem_ctrl.rank1.totalEnergy          3256743015                       # Total energy per rank (pJ)
system.mem_ctrl.rank1.averagePower         510.134658                       # Core power per rank (mW)
system.mem_ctrl.rank1.totalIdleTime                 0                       # Total Idle time Per DRAM Rank
system.mem_ctrl.rank1.memoryStateTime::IDLE   4083279500                       # Time in different power states
system.mem_ctrl.rank1.memoryStateTime::REF    212940000                       # Time in different power states
system.mem_ctrl.rank1.memoryStateTime::SREF            0                       # Time in different power states
system.mem_ctrl.rank1.memoryStateTime::PRE_PDN            0                       # Time in different power states
system.mem_ctrl.rank1.memoryStateTime::ACT   2087865500                       # Time in different power states
system.mem_ctrl.rank1.memoryStateTime::ACT_PDN            0                       # Time in different power states
system.mem_ctrl.rank0.actEnergy              13623120                       # Energy for activate commands per rank (pJ)
system.mem_ctrl.rank0.preEnergy               7240860                       # Energy for precharge commands per rank (pJ)
system.mem_ctrl.rank0.readEnergy            129712380                       # Energy for read commands per rank (pJ)
system.mem_ctrl.rank0.writeEnergy             7088760                       # Energy for write commands per rank (pJ)
system.mem_ctrl.rank0.refreshEnergy      503390160.000000                       # Energy for refresh commands per rank (pJ)
system.mem_ctrl.rank0.actBackEnergy        1746399630                       # Energy for active background per rank (pJ)
system.mem_ctrl.rank0.preBackEnergy         980836320                       # Energy for precharge background per rank (pJ)
system.mem_ctrl.rank0.actPowerDownEnergy            0                       # Energy for active power-down per rank (pJ)
system.mem_ctrl.rank0.prePowerDownEnergy            0                       # Energy for precharge power-down per rank (pJ)
system.mem_ctrl.rank0.selfRefreshEnergy             0                       # Energy for self refresh per rank (pJ)
system.mem_ctrl.rank0.totalEnergy          3388291230                       # Total energy per rank (pJ)
system.mem_ctrl.rank0.averagePower         530.740307                       # Core power per rank (mW)
system.mem_ctrl.rank0.totalIdleTime                 0                       # Total Idle time Per DRAM Rank
system.mem_ctrl.rank0.memoryStateTime::IDLE   2525256750                       # Time in different power states
system.mem_ctrl.rank0.memoryStateTime::REF    212940000                       # Time in different power states
system.mem_ctrl.rank0.memoryStateTime::SREF            0                       # Time in different power states
system.mem_ctrl.rank0.memoryStateTime::PRE_PDN            0                       # Time in different power states
system.mem_ctrl.rank0.memoryStateTime::ACT   3645888250                       # Time in different power states
system.mem_ctrl.rank0.memoryStateTime::ACT_PDN            0                       # Time in different power states
system.mem_ctrl.power_state.pwrStateResidencyTicks::UNDEFINED   6384085000                       # Cumulative time (in ticks) in various power states
system.cache_medium.blocked_cycles::no_mshrs            0                       # number of cycles access was blocked
system.cache_medium.blocked_cycles::no_targets            0                       # number of cycles access was blocked
system.cache_medium.blocked::no_mshrs               0                       # number of cycles access was blocked
system.cache_medium.blocked::no_targets             0                       # number of cycles access was blocked
system.cache_medium.avg_blocked_cycles::no_mshrs          nan                       # average number of cycles each access was blocked
system.cache_medium.avg_blocked_cycles::no_targets          nan                       # average number of cycles each access was blocked
system.cache_medium.replacements                    0                       # number of replacements
system.cache_medium.power_state.pwrStateResidencyTicks::UNDEFINED   6384085000                       # Cumulative time (in ticks) in various power states
system.cache_medium.tags.tagsinuse                  0                       # Cycle average of tags in use
system.cache_medium.tags.total_refs                 0                       # Total number of references to valid blocks.
system.cache_medium.tags.sampled_refs               0                       # Sample count of references to valid blocks.
system.cache_medium.tags.avg_refs                 nan                       # Average number of references to valid blocks.
system.cache_medium.tags.warmup_cycle               0                       # Cycle when the warmup percentage was hit.
system.cache_medium.tags.tag_accesses               0                       # Number of tag accesses
system.cache_medium.tags.data_accesses              0                       # Number of data accesses
system.cache_medium.tags.power_state.pwrStateResidencyTicks::UNDEFINED   6384085000                       # Cumulative time (in ticks) in various power states
system.clk_domain.clock                          1000                       # Clock period in ticks
system.clk_domain.voltage_domain.voltage            1                       # Voltage in Volts
system.dcache.demand_hits::.cpu.data           489211                       # number of demand (read+write) hits
system.dcache.demand_hits::total               489211                       # number of demand (read+write) hits
system.dcache.overall_hits::.cpu.data          489212                       # number of overall hits
system.dcache.overall_hits::total              489212                       # number of overall hits
system.dcache.demand_misses::.cpu.data          39003                       # number of demand (read+write) misses
system.dcache.demand_misses::total              39003                       # number of demand (read+write) misses
system.dcache.overall_misses::.cpu.data         39442                       # number of overall misses
system.dcache.overall_misses::total             39442                       # number of overall misses
system.dcache.demand_miss_latency::.cpu.data   2559542000                       # number of demand (read+write) miss cycles
system.dcache.demand_miss_latency::total   2559542000                       # number of demand (read+write) miss cycles
system.dcache.overall_miss_latency::.cpu.data   2592760000                       # number of overall miss cycles
system.dcache.overall_miss_latency::total   2592760000                       # number of overall miss cycles
system.dcache.demand_accesses::.cpu.data       528214                       # number of demand (read+write) accesses
system.dcache.demand_accesses::total           528214                       # number of demand (read+write) accesses
system.dcache.overall_accesses::.cpu.data       528654                       # number of overall (read+write) accesses
system.dcache.overall_accesses::total          528654                       # number of overall (read+write) accesses
system.dcache.demand_miss_rate::.cpu.data     0.073839                       # miss rate for demand accesses
system.dcache.demand_miss_rate::total        0.073839                       # miss rate for demand accesses
system.dcache.overall_miss_rate::.cpu.data     0.074608                       # miss rate for overall accesses
system.dcache.overall_miss_rate::total       0.074608                       # miss rate for overall accesses
system.dcache.demand_avg_miss_latency::.cpu.data 65624.234033                       # average overall miss latency
system.dcache.demand_avg_miss_latency::total 65624.234033                       # average overall miss latency
system.dcache.overall_avg_miss_latency::.cpu.data 65736.017443                       # average overall miss latency
system.dcache.overall_avg_miss_latency::total 65736.017443                       # average overall miss latency
system.dcache.blocked_cycles::no_mshrs              0                       # number of cycles access was blocked
system.dcache.blocked_cycles::no_targets            0                       # number of cycles access was blocked
system.dcache.blocked::no_mshrs                     0                       # number of cycles access was blocked
system.dcache.blocked::no_targets                   0                       # number of cycles access was blocked
system.dcache.avg_blocked_cycles::no_mshrs          nan                       # average number of cycles each access was blocked
system.dcache.avg_blocked_cycles::no_targets          nan                       # average number of cycles each access was blocked
system.dcache.writebacks::.writebacks           35944                       # number of writebacks
system.dcache.writebacks::total                 35944                       # number of writebacks
system.dcache.demand_mshr_misses::.cpu.data        39003                       # number of demand (read+write) MSHR misses
system.dcache.demand_mshr_misses::total         39003                       # number of demand (read+write) MSHR misses
system.dcache.overall_mshr_misses::.cpu.data        39442                       # number of overall MSHR misses
system.dcache.overall_mshr_misses::total        39442                       # number of overall MSHR misses
system.dcache.demand_mshr_miss_latency::.cpu.data   2481538000                       # number of demand (read+write) MSHR miss cycles
system.dcache.demand_mshr_miss_latency::total   2481538000                       # number of demand (read+write) MSHR miss cycles
system.dcache.overall_mshr_miss_latency::.cpu.data   2513878000                       # number of overall MSHR miss cycles
system.dcache.overall_mshr_miss_latency::total   2513878000                       # number of overall MSHR miss cycles
[...]
system.dcache.tags.age_task_id_blocks_1024::4           21                       # Occupied blocks per task id
system.dcache.tags.occ_task_id_percent::1024            1                       # Percentage of cache occupancy per task id
system.dcache.tags.tag_accesses               3241499                       # Number of tag accesses
system.dcache.tags.data_accesses              3241499                       # Number of data accesses
system.dcache.tags.power_state.pwrStateResidencyTicks::UNDEFINED  28825238000                       # Cumulative time (in ticks) in various power states
system.cache_large.blocked_cycles::no_mshrs            0                       # number of cycles access was blocked
system.cache_large.blocked_cycles::no_targets            0                       # number of cycles access was blocked
system.cache_large.blocked::no_mshrs                0                       # number of cycles access was blocked
system.cache_large.blocked::no_targets              0                       # number of cycles access was blocked
system.cache_large.avg_blocked_cycles::no_mshrs          nan                       # average number of cycles each access was blocked
system.cache_large.avg_blocked_cycles::no_targets          nan                       # average number of cycles each access was blocked
system.cache_large.replacements                     0                       # number of replacements
system.cache_large.power_state.pwrStateResidencyTicks::UNDEFINED  28825238000                       # Cumulative time (in ticks) in various power states
system.cache_large.tags.tagsinuse                   0                       # Cycle average of tags in use
system.cache_large.tags.total_refs                  0                       # Total number of references to valid blocks.
system.cache_large.tags.sampled_refs                0                       # Sample count of references to valid blocks.
system.cache_large.tags.avg_refs                  nan                       # Average number of references to valid blocks.
system.cache_large.tags.warmup_cycle                0                       # Cycle when the warmup percentage was hit.
system.cache_large.tags.tag_accesses                0                       # Number of tag accesses
system.cache_large.tags.data_accesses               0                       # Number of data accesses
system.cache_large.tags.power_state.pwrStateResidencyTicks::UNDEFINED  28825238000                       # Cumulative time (in ticks) in various power states
system.l2cache.demand_hits::.cpu.inst            3304                       # number of demand (read+write) hits
system.l2cache.demand_hits::.cpu.data           30520                       # number of demand (read+write) hits
system.l2cache.demand_hits::total               33824                       # number of demand (read+write) hits
system.l2cache.overall_hits::.cpu.inst           3304                       # number of overall hits
system.l2cache.overall_hits::.cpu.data          30520                       # number of overall hits
system.l2cache.overall_hits::total              33824                       # number of overall hits
system.l2cache.demand_misses::.cpu.inst         43234                       # number of demand (read+write) misses
system.l2cache.demand_misses::.cpu.data         44961                       # number of demand (read+write) misses
system.l2cache.demand_misses::total             88195                       # number of demand (read+write) misses
system.l2cache.overall_misses::.cpu.inst        43234                       # number of overall misses
system.l2cache.overall_misses::.cpu.data        44961                       # number of overall misses
system.l2cache.overall_misses::total            88195                       # number of overall misses
system.l2cache.demand_miss_latency::.cpu.inst    610204000                       # number of demand (read+write) miss cycles
system.l2cache.demand_miss_latency::.cpu.data   2451790000                       # number of demand (read+write) miss cycles
system.l2cache.demand_miss_latency::total   3061994000                       # number of demand (read+write) miss cycles
system.l2cache.overall_miss_latency::.cpu.inst    610204000                       # number of overall miss cycles
system.l2cache.overall_miss_latency::.cpu.data   2451790000                       # number of overall miss cycles
system.l2cache.overall_miss_latency::total   3061994000                       # number of overall miss cycles
system.l2cache.demand_accesses::.cpu.inst        46538                       # number of demand (read+write) accesses
system.l2cache.demand_accesses::.cpu.data        75481                       # number of demand (read+write) accesses
system.l2cache.demand_accesses::total          122019                       # number of demand (read+write) accesses
system.l2cache.overall_accesses::.cpu.inst        46538                       # number of overall (read+write) accesses
system.l2cache.overall_accesses::.cpu.data        75481                       # number of overall (read+write) accesses
system.l2cache.overall_accesses::total         122019                       # number of overall (read+write) accesses
system.l2cache.demand_miss_rate::.cpu.inst     0.929004                       # miss rate for demand accesses
system.l2cache.demand_miss_rate::.cpu.data     0.595660                       # miss rate for demand accesses
system.l2cache.demand_miss_rate::total       0.722797                       # miss rate for demand accesses
system.l2cache.overall_miss_rate::.cpu.inst     0.929004                       # miss rate for overall accesses
system.l2cache.overall_miss_rate::.cpu.data     0.595660                       # miss rate for overall accesses
system.l2cache.overall_miss_rate::total      0.722797                       # miss rate for overall accesses
system.l2cache.demand_avg_miss_latency::.cpu.inst 14113.984364                       # average overall miss latency
system.l2cache.demand_avg_miss_latency::.cpu.data 54531.482841                       # average overall miss latency
system.l2cache.demand_avg_miss_latency::total 34718.453427                       # average overall miss latency
system.l2cache.overall_avg_miss_latency::.cpu.inst 14113.984364                       # average overall miss latency
system.l2cache.overall_avg_miss_latency::.cpu.data 54531.482841                       # average overall miss latency
system.l2cache.overall_avg_miss_latency::total 34718.453427                       # average overall miss latency
system.l2cache.blocked_cycles::no_mshrs             0                       # number of cycles access was blocked
system.l2cache.blocked_cycles::no_targets            0                       # number of cycles access was blocked
system.l2cache.blocked::no_mshrs                    0                       # number of cycles access was blocked
system.l2cache.blocked::no_targets                  0                       # number of cycles access was blocked
system.l2cache.avg_blocked_cycles::no_mshrs          nan                       # average number of cycles each access was blocked
system.l2cache.avg_blocked_cycles::no_targets          nan                       # average number of cycles each access was blocked
system.l2cache.writebacks::.writebacks          36343                       # number of writebacks
system.l2cache.writebacks::total                36343                       # number of writebacks
system.l2cache.demand_mshr_misses::.cpu.inst        43234                       # number of demand (read+write) MSHR misses
system.l2cache.demand_mshr_misses::.cpu.data        44961                       # number of demand (read+write) MSHR misses
system.l2cache.demand_mshr_misses::total        88195                       # number of demand (read+write) MSHR misses
system.l2cache.overall_mshr_misses::.cpu.inst        43234                       # number of overall MSHR misses
system.l2cache.overall_mshr_misses::.cpu.data        44961                       # number of overall MSHR misses
system.l2cache.overall_mshr_misses::total        88195                       # number of overall MSHR misses
system.l2cache.demand_mshr_miss_latency::.cpu.inst    523736000                       # number of demand (read+write) MSHR miss cycles
system.l2cache.demand_mshr_miss_latency::.cpu.data   2361868000                       # number of demand (read+write) MSHR miss cycles
system.l2cache.demand_mshr_miss_latency::total   2885604000                       # number of demand (read+write) MSHR miss cycles
system.l2cache.overall_mshr_miss_latency::.cpu.inst    523736000                       # number of overall MSHR miss cycles
system.l2cache.overall_mshr_miss_latency::.cpu.data   2361868000                       # number of overall MSHR miss cycles
system.l2cache.overall_mshr_miss_latency::total   2885604000                       # number of overall MSHR miss cycles
system.l2cache.demand_mshr_miss_rate::.cpu.inst     0.929004                       # mshr miss rate for demand accesses
system.l2cache.demand_mshr_miss_rate::.cpu.data     0.595660                       # mshr miss rate for demand accesses
system.l2cache.demand_mshr_miss_rate::total     0.722797                       # mshr miss rate for demand accesses
system.l2cache.overall_mshr_miss_rate::.cpu.inst     0.929004                       # mshr miss rate for overall accesses
system.l2cache.overall_mshr_miss_rate::.cpu.data     0.595660                       # mshr miss rate for overall accesses
system.l2cache.overall_mshr_miss_rate::total     0.722797                       # mshr miss rate for overall accesses
system.l2cache.demand_avg_mshr_miss_latency::.cpu.inst 12113.984364                       # average overall mshr miss latency
system.l2cache.demand_avg_mshr_miss_latency::.cpu.data 52531.482841                       # average overall mshr miss latency
system.l2cache.demand_avg_mshr_miss_latency::total 32718.453427                       # average overall mshr miss latency
system.l2cache.overall_avg_mshr_miss_latency::.cpu.inst 12113.984364                       # average overall mshr miss latency
system.l2cache.overall_avg_mshr_miss_latency::.cpu.data 52531.482841                       # average overall mshr miss latency
system.l2cache.overall_avg_mshr_miss_latency::total 32718.453427                       # average overall mshr miss latency
system.l2cache.replacements                     90802                       # number of replacements
system.l2cache.ReadReq_hits::.cpu.inst           3304                       # number of ReadReq hits
system.l2cache.ReadReq_hits::.cpu.data          30520                       # number of ReadReq hits
system.l2cache.ReadReq_hits::total              33824                       # number of ReadReq hits
system.l2cache.ReadReq_misses::.cpu.inst        43234                       # number of ReadReq misses
system.l2cache.ReadReq_misses::.cpu.data        44961                       # number of ReadReq misses
system.l2cache.ReadReq_misses::total            88195                       # number of ReadReq misses
system.l2cache.ReadReq_miss_latency::.cpu.inst    610204000                       # number of ReadReq miss cycles
system.l2cache.ReadReq_miss_latency::.cpu.data   2451790000                       # number of ReadReq miss cycles
system.l2cache.ReadReq_miss_latency::total   3061994000                       # number of ReadReq miss cycles
system.l2cache.ReadReq_accesses::.cpu.inst        46538                       # number of ReadReq accesses(hits+misses)
system.l2cache.ReadReq_accesses::.cpu.data        75481                       # number of ReadReq accesses(hits+misses)
system.l2cache.ReadReq_accesses::total         122019                       # number of ReadReq accesses(hits+misses)
system.l2cache.ReadReq_miss_rate::.cpu.inst     0.929004                       # miss rate for ReadReq accesses
system.l2cache.ReadReq_miss_rate::.cpu.data     0.595660                       # miss rate for ReadReq accesses
system.l2cache.ReadReq_miss_rate::total      0.722797                       # miss rate for ReadReq accesses
system.l2cache.ReadReq_avg_miss_latency::.cpu.inst 14113.984364                       # average ReadReq miss latency
system.l2cache.ReadReq_avg_miss_latency::.cpu.data 54531.482841                       # average ReadReq miss latency
system.l2cache.ReadReq_avg_miss_latency::total 34718.453427                       # average ReadReq miss latency
system.l2cache.ReadReq_mshr_misses::.cpu.inst        43234                       # number of ReadReq MSHR misses
system.l2cache.ReadReq_mshr_misses::.cpu.data        44961                       # number of ReadReq MSHR misses
system.l2cache.ReadReq_mshr_misses::total        88195                       # number of ReadReq MSHR misses
system.l2cache.ReadReq_mshr_miss_latency::.cpu.inst    523736000                       # number of ReadReq MSHR miss cycles
system.l2cache.ReadReq_mshr_miss_latency::.cpu.data   2361868000                       # number of ReadReq MSHR miss cycles
system.l2cache.ReadReq_mshr_miss_latency::total   2885604000                       # number of ReadReq MSHR miss cycles
system.l2cache.ReadReq_mshr_miss_rate::.cpu.inst     0.929004                       # mshr miss rate for ReadReq accesses
system.l2cache.ReadReq_mshr_miss_rate::.cpu.data     0.595660                       # mshr miss rate for ReadReq accesses
system.l2cache.ReadReq_mshr_miss_rate::total     0.722797                       # mshr miss rate for ReadReq accesses
system.l2cache.ReadReq_avg_mshr_miss_latency::.cpu.inst 12113.984364                       # average ReadReq mshr miss latency
system.l2cache.ReadReq_avg_mshr_miss_latency::.cpu.data 52531.482841                       # average ReadReq mshr miss latency
system.l2cache.ReadReq_avg_mshr_miss_latency::total 32718.453427                       # average ReadReq mshr miss latency
system.l2cache.WritebackDirty_hits::.writebacks        39722                       # number of WritebackDirty hits
system.l2cache.WritebackDirty_hits::total        39722                       # number of WritebackDirty hits
system.l2cache.WritebackDirty_accesses::.writebacks        39722                       # number of WritebackDirty accesses(hits+misses)
system.l2cache.WritebackDirty_accesses::total        39722                       # number of WritebackDirty accesses(hits+misses)
system.l2cache.power_state.pwrStateResidencyTicks::UNDEFINED  28825238000                       # Cumulative time (in ticks) in various power states
system.l2cache.tags.tagsinuse              509.702692                       # Cycle average of tags in use
system.l2cache.tags.total_refs                 161741                       # Total number of references to valid blocks.
system.l2cache.tags.sampled_refs                91314                       # Sample count of references to valid blocks.
system.l2cache.tags.avg_refs                 1.771262                       # Average number of references to valid blocks.
system.l2cache.tags.warmup_cycle                78000                       # Cycle when the warmup percentage was hit.
system.l2cache.tags.occ_blocks::.writebacks    82.571381                       # Average occupied blocks per requestor
system.l2cache.tags.occ_blocks::.cpu.inst    11.129110                       # Average occupied blocks per requestor
system.l2cache.tags.occ_blocks::.cpu.data   416.002201                       # Average occupied blocks per requestor
system.l2cache.tags.occ_percent::.writebacks     0.161272                       # Average percentage of cache occupancy
system.l2cache.tags.occ_percent::.cpu.inst     0.021737                       # Average percentage of cache occupancy
system.l2cache.tags.occ_percent::.cpu.data     0.812504                       # Average percentage of cache occupancy
system.l2cache.tags.occ_percent::total       0.995513                       # Average percentage of cache occupancy
system.l2cache.tags.occ_task_id_blocks::1024          512                       # Occupied blocks per task id
system.l2cache.tags.age_task_id_blocks_1024::0            4                       # Occupied blocks per task id
system.l2cache.tags.age_task_id_blocks_1024::1            5                       # Occupied blocks per task id
system.l2cache.tags.age_task_id_blocks_1024::2           50                       # Occupied blocks per task id
system.l2cache.tags.age_task_id_blocks_1024::3          134                       # Occupied blocks per task id
system.l2cache.tags.age_task_id_blocks_1024::4          319                       # Occupied blocks per task id
system.l2cache.tags.occ_task_id_percent::1024            1                       # Percentage of cache occupancy per task id
system.l2cache.tags.tag_accesses               253055                       # Number of tag accesses
system.l2cache.tags.data_accesses              253055                       # Number of data accesses
system.l2cache.tags.power_state.pwrStateResidencyTicks::UNDEFINED  28825238000                       # Cumulative time (in ticks) in various power states
system.l2bar.trans_dist::ReadReq               122019                       # Transaction distribution
system.l2bar.trans_dist::ReadResp              122019                       # Transaction distribution
system.l2bar.trans_dist::WritebackDirty         39722                       # Transaction distribution
system.l2bar.pkt_count_system.dcache.mem_side::system.l2cache.cpu_side       190684                       # Packet count per connected master and slave (bytes)
system.l2bar.pkt_count_system.icache.mem_side::system.l2cache.cpu_side        93076                       # Packet count per connected master and slave (bytes)
system.l2bar.pkt_count::total                  283760                       # Packet count per connected master and slave (bytes)
system.l2bar.pkt_size_system.dcache.mem_side::system.l2cache.cpu_side      7372992                       # Cumulative packet size per connected master and slave (bytes)
system.l2bar.pkt_size_system.icache.mem_side::system.l2cache.cpu_side      2978432                       # Cumulative packet size per connected master and slave (bytes)
system.l2bar.pkt_size::total                 10351424                       # Cumulative packet size per connected master and slave (bytes)
system.l2bar.respLayer1.occupancy           232690000                       # Layer occupancy (ticks)
system.l2bar.respLayer1.utilization               0.8                       # Layer utilization (%)
system.l2bar.reqLayer0.occupancy            320629000                       # Layer occupancy (ticks)
system.l2bar.reqLayer0.utilization                1.1                       # Layer utilization (%)
system.l2bar.respLayer0.occupancy           377405000                       # Layer occupancy (ticks)
system.l2bar.respLayer0.utilization               1.3                       # Layer utilization (%)
system.l2bar.power_state.pwrStateResidencyTicks::UNDEFINED  28825238000                       # Cumulative time (in ticks) in various power states
system.cpu.dtb.walker.power_state.pwrStateResidencyTicks::UNDEFINED  28825238000                       # Cumulative time (in ticks) in various power states
system.cpu.interrupts.clk_domain.clock          16000                       # Clock period in ticks
system.cpu.itb.walker.power_state.pwrStateResidencyTicks::UNDEFINED  28825238000                       # Cumulative time (in ticks) in various power states
system.cpu.power_state.numTransitions               1                       # Number of power state transitions
system.cpu.power_state.pwrStateResidencyTicks::ON  28825238000                       # Cumulative time (in ticks) in various power states

---------- End Simulation Statistics   ----------
