
---------- Begin Simulation Statistics ----------
final_tick                               100002489000                       # Number of ticks from beginning of simulation (restored from checkpoints and never reset)
host_inst_rate                                 180388                       # Simulator instruction rate (inst/s)
host_mem_usage                                 678840                       # Number of bytes of host memory used
host_op_rate                                   214548                       # Simulator op (including micro ops) rate (op/s)
host_seconds                                     5.54                       # Real time elapsed on the host
host_tick_rate                            18038761146                       # Simulator tick rate (ticks/s)
sim_freq                                 1000000000000                       # Frequency of simulated ticks
sim_insts                                     1000000                       # Number of instructions simulated
sim_ops                                       1189393                       # Number of ops (including micro ops) simulated
sim_seconds                                  0.100002                       # Number of seconds simulated
sim_ticks                                100002489000                       # Number of ticks simulated
system.cachebus.snoop_filter.hit_multi_requests            0                       # Number of requests hitting in the snoop filter with multiple (>1) holders of the requested data.
system.cachebus.snoop_filter.hit_multi_snoops            0                       # Number of snoops hitting in the snoop filter with multiple (>1) holders of the requested data.
system.cachebus.snoop_filter.hit_single_requests            0                       # Number of requests hitting in the snoop filter with a single holder of the requested data.
system.cachebus.snoop_filter.hit_single_snoops            0                       # Number of snoops hitting in the snoop filter with a single holder of the requested data.
system.cachebus.snoop_filter.tot_requests            0                       # Total number of requests made to the snoop filter.
system.cachebus.snoop_filter.tot_snoops             0                       # Total number of snoops made to the snoop filter.
system.cpu.Branches                             47286                       # Number of branches fetched
system.cpu.committedInsts                     1000000                       # Number of instructions committed
system.cpu.committedOps                       1189393                       # Number of ops (including micro ops) committed
system.cpu.dtb.rdAccesses                        4335                       # TLB accesses on read requests
system.cpu.dtb.rdMisses                            16                       # TLB misses on read requests
system.cpu.dtb.wrAccesses                      858058                       # TLB accesses on write requests
system.cpu.dtb.wrMisses                          3347                       # TLB misses on write requests
system.cpu.idle_fraction                            0                       # Percentage of idle cycles
system.cpu.itb.rdAccesses                           0                       # TLB accesses on read requests
system.cpu.itb.rdMisses                             0                       # TLB misses on read requests
system.cpu.itb.wrAccesses                     1563664                       # TLB accesses on write requests
system.cpu.itb.wrMisses                            47                       # TLB misses on write requests
system.cpu.not_idle_fraction                        1                       # Percentage of non-idle cycles
system.cpu.numCycles                        100002489                       # number of cpu cycles simulated
system.cpu.numWorkItemsCompleted                    0                       # number of work items this cpu completed
system.cpu.numWorkItemsStarted                      0                       # number of work items this cpu started
system.cpu.num_busy_cycles                  100002489                       # Number of busy cycles
system.cpu.num_cc_register_reads               235911                       # number of times the CC registers were read
system.cpu.num_cc_register_writes              181812                       # number of times the CC registers were written
system.cpu.num_conditional_control_insts        46287                       # number of instructions that are conditional controls
system.cpu.num_fp_alu_accesses                 811639                       # Number of float alu accesses
system.cpu.num_fp_insts                        811639                       # number of float instructions
system.cpu.num_fp_register_reads               812150                       # number of times the floating registers were read
system.cpu.num_fp_register_writes                 609                       # number of times the floating registers were written
system.cpu.num_func_calls                         651                       # number of times a function call or return occured
system.cpu.num_idle_cycles                          0                       # Number of idle cycles
system.cpu.num_int_alu_accesses               1190345                       # Number of integer alu accesses
system.cpu.num_int_insts                      1190345                       # number of integer instructions
system.cpu.num_int_register_reads             3021936                       # number of times the integer registers were read
system.cpu.num_int_register_writes             285188                       # number of times the integer registers were written
system.cpu.num_load_insts                        4320                       # Number of load instructions
system.cpu.num_mem_refs                        862378                       # number of memory refs
system.cpu.num_store_insts                     858058                       # Number of store instructions
system.cpu.num_vec_alu_accesses                     0                       # Number of vector alu accesses
system.cpu.num_vec_insts                            0                       # number of vector instructions
system.cpu.num_vec_register_reads                   0                       # number of times the vector registers were read
system.cpu.num_vec_register_writes                  0                       # number of times the vector registers were written
system.cpu.op_class::No_OpClass                   186      0.02%      0.02% # Class of executed instruction
system.cpu.op_class::IntAlu                    327849     27.53%     27.54% # Class of executed instruction
system.cpu.op_class::IntMult                       29      0.00%     27.54% # Class of executed instruction
system.cpu.op_class::IntDiv                        70      0.01%     27.55% # Class of executed instruction
system.cpu.op_class::FloatAdd                      19      0.00%     27.55% # Class of executed instruction
system.cpu.op_class::FloatCmp                       0      0.00%     27.55% # Class of executed instruction
system.cpu.op_class::FloatCvt                       0      0.00%     27.55% # Class of executed instruction
system.cpu.op_class::FloatMult                      0      0.00%     27.55% # Class of executed instruction
system.cpu.op_class::FloatMultAcc                   0      0.00%     27.55% # Class of executed instruction
system.cpu.op_class::FloatDiv                       0      0.00%     27.55% # Class of executed instruction
system.cpu.op_class::FloatMisc                      0      0.00%     27.55% # Class of executed instruction
system.cpu.op_class::FloatSqrt                      0      0.00%     27.55% # Class of executed instruction
system.cpu.op_class::SimdAdd                        0      0.00%     27.55% # Class of executed instruction
system.cpu.op_class::SimdAddAcc                     0      0.00%     27.55% # Class of executed instruction
system.cpu.op_class::SimdAlu                      152      0.01%     27.56% # Class of executed instruction
system.cpu.op_class::SimdCmp                        0      0.00%     27.56% # Class of executed instruction
system.cpu.op_class::SimdCvt                      158      0.01%     27.58% # Class of executed instruction
system.cpu.op_class::SimdMisc                     221      0.02%     27.60% # Class of executed instruction
system.cpu.op_class::SimdMult                       0      0.00%     27.60% # Class of executed instruction
system.cpu.op_class::SimdMultAcc                    0      0.00%     27.60% # Class of executed instruction
system.cpu.op_class::SimdShift                      0      0.00%     27.60% # Class of executed instruction
system.cpu.op_class::SimdShiftAcc                   0      0.00%     27.60% # Class of executed instruction
system.cpu.op_class::SimdDiv                        0      0.00%     27.60% # Class of executed instruction
system.cpu.op_class::SimdSqrt                       0      0.00%     27.60% # Class of executed instruction
system.cpu.op_class::SimdFloatAdd                   0      0.00%     27.60% # Class of executed instruction
system.cpu.op_class::SimdFloatAlu                   0      0.00%     27.60% # Class of executed instruction
system.cpu.op_class::SimdFloatCmp                   0      0.00%     27.60% # Class of executed instruction
system.cpu.op_class::SimdFloatCvt                   2      0.00%     27.60% # Class of executed instruction
system.cpu.op_class::SimdFloatDiv                   0      0.00%     27.60% # Class of executed instruction
system.cpu.op_class::SimdFloatMisc                  0      0.00%     27.60% # Class of executed instruction
system.cpu.op_class::SimdFloatMult                  0      0.00%     27.60% # Class of executed instruction
system.cpu.op_class::SimdFloatMultAcc               0      0.00%     27.60% # Class of executed instruction
system.cpu.op_class::SimdFloatSqrt                  0      0.00%     27.60% # Class of executed instruction
system.cpu.op_class::SimdReduceAdd                  0      0.00%     27.60% # Class of executed instruction
system.cpu.op_class::SimdReduceAlu                  0      0.00%     27.60% # Class of executed instruction
system.cpu.op_class::SimdReduceCmp                  0      0.00%     27.60% # Class of executed instruction
system.cpu.op_class::SimdFloatReduceAdd             0      0.00%     27.60% # Class of executed instruction
system.cpu.op_class::SimdFloatReduceCmp             0      0.00%     27.60% # Class of executed instruction
system.cpu.op_class::SimdAes                        0      0.00%     27.60% # Class of executed instruction
system.cpu.op_class::SimdAesMix                     0      0.00%     27.60% # Class of executed instruction
system.cpu.op_class::SimdSha1Hash                   0      0.00%     27.60% # Class of executed instruction
system.cpu.op_class::SimdSha1Hash2                  0      0.00%     27.60% # Class of executed instruction
system.cpu.op_class::SimdSha256Hash                 0      0.00%     27.60% # Class of executed instruction
system.cpu.op_class::SimdSha256Hash2                0      0.00%     27.60% # Class of executed instruction
system.cpu.op_class::SimdShaSigma2                  0      0.00%     27.60% # Class of executed instruction
system.cpu.op_class::SimdShaSigma3                  0      0.00%     27.60% # Class of executed instruction
system.cpu.op_class::SimdPredAlu                    0      0.00%     27.60% # Class of executed instruction
system.cpu.op_class::MemRead                     4218      0.35%     27.95% # Class of executed instruction
system.cpu.op_class::MemWrite                   47139      3.96%     31.91% # Class of executed instruction
system.cpu.op_class::FloatMemRead                 102      0.01%     31.92% # Class of executed instruction
system.cpu.op_class::FloatMemWrite             810919     68.08%    100.00% # Class of executed instruction
system.cpu.op_class::IprAccess                      0      0.00%    100.00% # Class of executed instruction
system.cpu.op_class::InstPrefetch                   0      0.00%    100.00% # Class of executed instruction
system.cpu.op_class::total                    1191064                       # Class of executed instruction
system.cpu.workload.numSyscalls                    19                       # Number of system calls
system.membus.snoop_filter.hit_multi_requests            0                       # Number of requests hitting in the snoop filter with multiple (>1) holders of the requested data.
system.membus.snoop_filter.hit_multi_snoops            0                       # Number of snoops hitting in the snoop filter with multiple (>1) holders of the requested data.
system.membus.snoop_filter.hit_single_requests            0                       # Number of requests hitting in the snoop filter with a single holder of the requested data.
system.membus.snoop_filter.hit_single_snoops            0                       # Number of snoops hitting in the snoop filter with a single holder of the requested data.
system.membus.snoop_filter.tot_requests             0                       # Total number of requests made to the snoop filter.
system.membus.snoop_filter.tot_snoops               0                       # Total number of snoops made to the snoop filter.
system.membus.trans_dist::ReadReq             1567999                       # Transaction distribution
system.membus.trans_dist::ReadResp            1567998                       # Transaction distribution
system.membus.trans_dist::WriteReq             856387                       # Transaction distribution
system.membus.trans_dist::WriteResp            856387                       # Transaction distribution
system.membus.pkt_count_system.cpu.icache_port::system.mem_ctrl.port      3127327                       # Packet count per connected master and slave (bytes)
system.membus.pkt_count_system.cpu.icache_port::total      3127327                       # Packet count per connected master and slave (bytes)
system.membus.pkt_count_system.memobj.mem_side::system.mem_ctrl.port      1721444                       # Packet count per connected master and slave (bytes)
system.membus.pkt_count_system.memobj.mem_side::total      1721444                       # Packet count per connected master and slave (bytes)
system.membus.pkt_count::total                4848771                       # Packet count per connected master and slave (bytes)
system.membus.pkt_size_system.cpu.icache_port::system.mem_ctrl.port     12509304                       # Cumulative packet size per connected master and slave (bytes)
system.membus.pkt_size_system.cpu.icache_port::total     12509304                       # Cumulative packet size per connected master and slave (bytes)
system.membus.pkt_size_system.memobj.mem_side::system.mem_ctrl.port      6704695                       # Cumulative packet size per connected master and slave (bytes)
system.membus.pkt_size_system.memobj.mem_side::total      6704695                       # Cumulative packet size per connected master and slave (bytes)
system.membus.pkt_size::total                19213999                       # Cumulative packet size per connected master and slave (bytes)
system.membus.snoops                                0                       # Total snoops (count)
system.membus.snoopTraffic                          0                       # Total snoop traffic (bytes)
system.membus.snoop_fanout::samples           2424386                       # Request fanout histogram
system.membus.snoop_fanout::mean                    0                       # Request fanout histogram
system.membus.snoop_fanout::stdev                   0                       # Request fanout histogram
system.membus.snoop_fanout::underflows              0      0.00%      0.00% # Request fanout histogram
system.membus.snoop_fanout::0                 2424386    100.00%    100.00% # Request fanout histogram
system.membus.snoop_fanout::1                       0      0.00%    100.00% # Request fanout histogram
system.membus.snoop_fanout::overflows               0      0.00%    100.00% # Request fanout histogram
system.membus.snoop_fanout::min_value               0                       # Request fanout histogram
system.membus.snoop_fanout::max_value               0                       # Request fanout histogram
system.membus.snoop_fanout::total             2424386                       # Request fanout histogram
system.membus.reqLayer2.occupancy          3280773000                       # Layer occupancy (ticks)
system.membus.reqLayer2.utilization               3.3                       # Layer utilization (%)
system.membus.respLayer1.occupancy          866171000                       # Layer occupancy (ticks)
system.membus.respLayer1.utilization              0.9                       # Layer utilization (%)
system.membus.respLayer0.occupancy         3541550750                       # Layer occupancy (ticks)
system.membus.respLayer0.utilization              3.5                       # Layer utilization (%)
system.membus.power_state.pwrStateResidencyTicks::UNDEFINED 100002489000                       # Cumulative time (in ticks) in various power states
system.mem_ctrl.bytes_read::.cpu.inst        12509304                       # Number of bytes read from this memory
system.mem_ctrl.bytes_read::.cpu.data           27431                       # Number of bytes read from this memory
system.mem_ctrl.bytes_read::total            12536735                       # Number of bytes read from this memory
system.mem_ctrl.bytes_inst_read::.cpu.inst     12509304                       # Number of instructions bytes read from this memory
system.mem_ctrl.bytes_inst_read::total       12509304                       # Number of instructions bytes read from this memory
system.mem_ctrl.bytes_written::.cpu.data      6677264                       # Number of bytes written to this memory
system.mem_ctrl.bytes_written::total          6677264                       # Number of bytes written to this memory
system.mem_ctrl.num_reads::.cpu.inst          1563663                       # Number of read requests responded to by this memory
system.mem_ctrl.num_reads::.cpu.data             4335                       # Number of read requests responded to by this memory
system.mem_ctrl.num_reads::total              1567998                       # Number of read requests responded to by this memory
system.mem_ctrl.num_writes::.cpu.data          856387                       # Number of write requests responded to by this memory
system.mem_ctrl.num_writes::total              856387                       # Number of write requests responded to by this memory
system.mem_ctrl.bw_read::.cpu.inst          125089927                       # Total read bandwidth from this memory (bytes/s)
system.mem_ctrl.bw_read::.cpu.data             274303                       # Total read bandwidth from this memory (bytes/s)
system.mem_ctrl.bw_read::total              125364230                       # Total read bandwidth from this memory (bytes/s)
system.mem_ctrl.bw_inst_read::.cpu.inst     125089927                       # Instruction read bandwidth from this memory (bytes/s)
system.mem_ctrl.bw_inst_read::total         125089927                       # Instruction read bandwidth from this memory (bytes/s)
system.mem_ctrl.bw_write::.cpu.data          66770978                       # Write bandwidth from this memory (bytes/s)
system.mem_ctrl.bw_write::total              66770978                       # Write bandwidth from this memory (bytes/s)
system.mem_ctrl.bw_total::.cpu.inst         125089927                       # Total bandwidth to/from this memory (bytes/s)
system.mem_ctrl.bw_total::.cpu.data          67045281                       # Total bandwidth to/from this memory (bytes/s)
system.mem_ctrl.bw_total::total             192135208                       # Total bandwidth to/from this memory (bytes/s)
system.mem_ctrl.avgPriority_.cpu.inst::samples   1563664.00                       # Average QoS priority value for accepted requests
system.mem_ctrl.avgPriority_.cpu.data::samples    111528.00                       # Average QoS priority value for accepted requests
system.mem_ctrl.priorityMinLatency       0.000000018750                       # per QoS priority minimum request to response latency (s)
system.mem_ctrl.priorityMaxLatency       0.002517780500                       # per QoS priority maximum request to response latency (s)
system.mem_ctrl.numReadWriteTurnArounds          6738                       # Number of turnarounds from READ to WRITE
system.mem_ctrl.numWriteReadTurnArounds          6738                       # Number of turnarounds from WRITE to READ
system.mem_ctrl.numStayReadState              4009897                       # Number of times bus staying in READ state
system.mem_ctrl.numStayWriteState              101215                       # Number of times bus staying in WRITE state
system.mem_ctrl.readReqs                      1567999                       # Number of read requests accepted
system.mem_ctrl.writeReqs                      856387                       # Number of write requests accepted
system.mem_ctrl.readBursts                    1567999                       # Number of DRAM read bursts, including those serviced by the write queue
system.mem_ctrl.writeBursts                    856387                       # Number of DRAM write bursts, including those merged in the write queue
system.mem_ctrl.servicedByWrQ                     668                       # Number of DRAM read bursts serviced by the write queue
system.mem_ctrl.mergedWrBursts                 748526                       # Number of DRAM write bursts merged with an existing one
system.mem_ctrl.neitherReadNorWriteReqs             0                       # Number of requests that are neither read nor write
system.mem_ctrl.perBankRdBursts::0            1541216                       # Per bank write bursts
system.mem_ctrl.perBankRdBursts::1                965                       # Per bank write bursts
system.mem_ctrl.perBankRdBursts::2                681                       # Per bank write bursts
system.mem_ctrl.perBankRdBursts::3               1127                       # Per bank write bursts
system.mem_ctrl.perBankRdBursts::4               1054                       # Per bank write bursts
system.mem_ctrl.perBankRdBursts::5                514                       # Per bank write bursts
system.mem_ctrl.perBankRdBursts::6                966                       # Per bank write bursts
system.mem_ctrl.perBankRdBursts::7                 24                       # Per bank write bursts
system.mem_ctrl.perBankRdBursts::8                194                       # Per bank write bursts
system.mem_ctrl.perBankRdBursts::9               1580                       # Per bank write bursts
system.mem_ctrl.perBankRdBursts::10               993                       # Per bank write bursts
system.mem_ctrl.perBankRdBursts::11              1826                       # Per bank write bursts
system.mem_ctrl.perBankRdBursts::12              3616                       # Per bank write bursts
system.mem_ctrl.perBankRdBursts::13             10000                       # Per bank write bursts
system.mem_ctrl.perBankRdBursts::14               947                       # Per bank write bursts
system.mem_ctrl.perBankRdBursts::15              1628                       # Per bank write bursts
system.mem_ctrl.perBankWrBursts::0               6656                       # Per bank write bursts
system.mem_ctrl.perBankWrBursts::1               7526                       # Per bank write bursts
system.mem_ctrl.perBankWrBursts::2               6749                       # Per bank write bursts
system.mem_ctrl.perBankWrBursts::3               6656                       # Per bank write bursts
system.mem_ctrl.perBankWrBursts::4               6656                       # Per bank write bursts
system.mem_ctrl.perBankWrBursts::5               6656                       # Per bank write bursts
system.mem_ctrl.perBankWrBursts::6               6656                       # Per bank write bursts
system.mem_ctrl.perBankWrBursts::7               6656                       # Per bank write bursts
system.mem_ctrl.perBankWrBursts::8               6659                       # Per bank write bursts
system.mem_ctrl.perBankWrBursts::9               6725                       # Per bank write bursts
system.mem_ctrl.perBankWrBursts::10              6684                       # Per bank write bursts
system.mem_ctrl.perBankWrBursts::11              6723                       # Per bank write bursts
system.mem_ctrl.perBankWrBursts::12              6677                       # Per bank write bursts
system.mem_ctrl.perBankWrBursts::13              6686                       # Per bank write bursts
system.mem_ctrl.perBankWrBursts::14              6721                       # Per bank write bursts
system.mem_ctrl.perBankWrBursts::15              6756                       # Per bank write bursts
system.mem_ctrl.avgRdQLen                        1.00                       # Average read queue length when enqueuing
system.mem_ctrl.avgWrQLen                       25.60                       # Average write queue length when enqueuing
system.mem_ctrl.totQLat                    5183101750                       # Total ticks spent queuing
system.mem_ctrl.totBusLat                  7836655000                       # Total ticks spent in databus transfers
system.mem_ctrl.totMemAccLat              34570558000                       # Total ticks spent from burst creation until serviced by the DRAM
system.mem_ctrl.avgQLat                       3306.96                       # Average queueing delay per DRAM burst
system.mem_ctrl.avgBusLat                     5000.00                       # Average bus latency per DRAM burst
system.mem_ctrl.avgMemAccLat                 22056.96                       # Average memory access latency per DRAM burst
system.mem_ctrl.numRdRetry                          0                       # Number of times read queue was full causing retry
system.mem_ctrl.numWrRetry                          0                       # Number of times write queue was full causing retry
system.mem_ctrl.readRowHits                   1463369                       # Number of row buffer hits during reads
system.mem_ctrl.writeRowHits                   100258                       # Number of row buffer hits during writes
system.mem_ctrl.readRowHitRate                  93.37                       # Row buffer hit rate for reads
system.mem_ctrl.writeRowHitRate                 92.95                       # Row buffer hit rate for writes
system.mem_ctrl.readPktSize::0                    569                       # Read request sizes (log2)
system.mem_ctrl.readPktSize::1                     34                       # Read request sizes (log2)
system.mem_ctrl.readPktSize::2                    761                       # Read request sizes (log2)
system.mem_ctrl.readPktSize::3                1566635                       # Read request sizes (log2)
system.mem_ctrl.readPktSize::4                      0                       # Read request sizes (log2)
system.mem_ctrl.readPktSize::5                      0                       # Read request sizes (log2)
system.mem_ctrl.readPktSize::6                      0                       # Read request sizes (log2)
system.mem_ctrl.writePktSize::0                   210                       # Write request sizes (log2)
system.mem_ctrl.writePktSize::1                    15                       # Write request sizes (log2)
system.mem_ctrl.writePktSize::2                 43068                       # Write request sizes (log2)
system.mem_ctrl.writePktSize::3                813094                       # Write request sizes (log2)
system.mem_ctrl.writePktSize::4                     0                       # Write request sizes (log2)
system.mem_ctrl.writePktSize::5                     0                       # Write request sizes (log2)
system.mem_ctrl.writePktSize::6                     0                       # Write request sizes (log2)
system.mem_ctrl.rdQLenPdf::0                  1567316                       # What read queue length does an incoming req see
system.mem_ctrl.rdQLenPdf::1                       15                       # What read queue length does an incoming req see
system.mem_ctrl.rdQLenPdf::2                        0                       # What read queue length does an incoming req see
system.mem_ctrl.rdQLenPdf::3                        0                       # What read queue length does an incoming req see
system.mem_ctrl.rdQLenPdf::4                        0                       # What read queue length does an incoming req see
system.mem_ctrl.rdQLenPdf::5                        0                       # What read queue length does an incoming req see
system.mem_ctrl.rdQLenPdf::6                        0                       # What read queue length does an incoming req see
system.mem_ctrl.rdQLenPdf::7                        0                       # What read queue length does an incoming req see
system.mem_ctrl.rdQLenPdf::8                        0                       # What read queue length does an incoming req see
system.mem_ctrl.rdQLenPdf::9                        0                       # What read queue length does an incoming req see
system.mem_ctrl.rdQLenPdf::10                       0                       # What read queue length does an incoming req see
system.mem_ctrl.rdQLenPdf::11                       0                       # What read queue length does an incoming req see
system.mem_ctrl.rdQLenPdf::12                       0                       # What read queue length does an incoming req see
system.mem_ctrl.rdQLenPdf::13                       0                       # What read queue length does an incoming req see
system.mem_ctrl.rdQLenPdf::14                       0                       # What read queue length does an incoming req see
system.mem_ctrl.rdQLenPdf::15                       0                       # What read queue length does an incoming req see
system.mem_ctrl.rdQLenPdf::16                       0                       # What read queue length does an incoming req see
system.mem_ctrl.rdQLenPdf::17                       0                       # What read queue length does an incoming req see
system.mem_ctrl.rdQLenPdf::18                       0                       # What read queue length does an incoming req see
system.mem_ctrl.rdQLenPdf::19                       0                       # What read queue length does an incoming req see
system.mem_ctrl.rdQLenPdf::20                       0                       # What read queue length does an incoming req see
system.mem_ctrl.rdQLenPdf::21                       0                       # What read queue length does an incoming req see
system.mem_ctrl.rdQLenPdf::22                       0                       # What read queue length does an incoming req see
system.mem_ctrl.rdQLenPdf::23                       0                       # What read queue length does an incoming req see
system.mem_ctrl.rdQLenPdf::24                       0                       # What read queue length does an incoming req see
system.mem_ctrl.rdQLenPdf::25                       0                       # What read queue length does an incoming req see
system.mem_ctrl.rdQLenPdf::26                       0                       # What read queue length does an incoming req see
system.mem_ctrl.rdQLenPdf::27                       0                       # What read queue length does an incoming req see
system.mem_ctrl.rdQLenPdf::28                       0                       # What read queue length does an incoming req see
system.mem_ctrl.rdQLenPdf::29                       0                       # What read queue length does an incoming req see
system.mem_ctrl.rdQLenPdf::30                       0                       # What read queue length does an incoming req see
system.mem_ctrl.rdQLenPdf::31                       0                       # What read queue length does an incoming req see
system.mem_ctrl.wrQLenPdf::0                        1                       # What write queue length does an incoming req see
system.mem_ctrl.wrQLenPdf::1                        1                       # What write queue length does an incoming req see
system.mem_ctrl.wrQLenPdf::2                        1                       # What write queue length does an incoming req see
system.mem_ctrl.wrQLenPdf::3                        1                       # What write queue length does an incoming req see
system.mem_ctrl.wrQLenPdf::4                        1                       # What write queue length does an incoming req see
system.mem_ctrl.wrQLenPdf::5                        1                       # What write queue length does an incoming req see
system.mem_ctrl.wrQLenPdf::6                        1                       # What write queue length does an incoming req see
system.mem_ctrl.wrQLenPdf::7                        1                       # What write queue length does an incoming req see
system.mem_ctrl.wrQLenPdf::8                        1                       # What write queue length does an incoming req see
system.mem_ctrl.wrQLenPdf::9                        1                       # What write queue length does an incoming req see
system.mem_ctrl.wrQLenPdf::10                       1                       # What write queue length does an incoming req see
system.mem_ctrl.wrQLenPdf::11                       1                       # What write queue length does an incoming req see
system.mem_ctrl.wrQLenPdf::12                       1                       # What write queue length does an incoming req see
system.mem_ctrl.wrQLenPdf::13                       1                       # What write queue length does an incoming req see
system.mem_ctrl.wrQLenPdf::14                       1                       # What write queue length does an incoming req see
system.mem_ctrl.wrQLenPdf::15                      18                       # What write queue length does an incoming req see
system.mem_ctrl.wrQLenPdf::16                      18                       # What write queue length does an incoming req see
system.mem_ctrl.wrQLenPdf::17                    6739                       # What write queue length does an incoming req see
system.mem_ctrl.wrQLenPdf::18                    6739                       # What write queue length does an incoming req see
system.mem_ctrl.wrQLenPdf::19                    6738                       # What write queue length does an incoming req see
system.mem_ctrl.wrQLenPdf::20                    6738                       # What write queue length does an incoming req see
system.mem_ctrl.wrQLenPdf::21                    6738                       # What write queue length does an incoming req see
system.mem_ctrl.wrQLenPdf::22                    6738                       # What write queue length does an incoming req see
system.mem_ctrl.wrQLenPdf::23                    6738                       # What write queue length does an incoming req see
system.mem_ctrl.wrQLenPdf::24                    6738                       # What write queue length does an incoming req see
system.mem_ctrl.wrQLenPdf::25                    6738                       # What write queue length does an incoming req see
system.mem_ctrl.wrQLenPdf::26                    6738                       # What write queue length does an incoming req see
system.mem_ctrl.wrQLenPdf::27                    6738                       # What write queue length does an incoming req see
system.mem_ctrl.wrQLenPdf::28                    6738                       # What write queue length does an incoming req see
system.mem_ctrl.wrQLenPdf::29                    6738                       # What write queue length does an incoming req see
system.mem_ctrl.wrQLenPdf::30                    6738                       # What write queue length does an incoming req see
system.mem_ctrl.wrQLenPdf::31                    6738                       # What write queue length does an incoming req see
system.mem_ctrl.wrQLenPdf::32                    6738                       # What write queue length does an incoming req see
system.mem_ctrl.wrQLenPdf::33                       0                       # What write queue length does an incoming req see
system.mem_ctrl.wrQLenPdf::34                       0                       # What write queue length does an incoming req see
system.mem_ctrl.wrQLenPdf::35                       0                       # What write queue length does an incoming req see
system.mem_ctrl.wrQLenPdf::36                       0                       # What write queue length does an incoming req see
system.mem_ctrl.wrQLenPdf::37                       0                       # What write queue length does an incoming req see
system.mem_ctrl.wrQLenPdf::38                       0                       # What write queue length does an incoming req see
system.mem_ctrl.wrQLenPdf::39                       0                       # What write queue length does an incoming req see
system.mem_ctrl.wrQLenPdf::40                       0                       # What write queue length does an incoming req see
system.mem_ctrl.wrQLenPdf::41                       0                       # What write queue length does an incoming req see
system.mem_ctrl.wrQLenPdf::42                       0                       # What write queue length does an incoming req see
system.mem_ctrl.wrQLenPdf::43                       0                       # What write queue length does an incoming req see
system.mem_ctrl.wrQLenPdf::44                       0                       # What write queue length does an incoming req see
system.mem_ctrl.wrQLenPdf::45                       0                       # What write queue length does an incoming req see
system.mem_ctrl.wrQLenPdf::46                       0                       # What write queue length does an incoming req see
system.mem_ctrl.wrQLenPdf::47                       0                       # What write queue length does an incoming req see
system.mem_ctrl.wrQLenPdf::48                       0                       # What write queue length does an incoming req see
system.mem_ctrl.wrQLenPdf::49                       0                       # What write queue length does an incoming req see
system.mem_ctrl.wrQLenPdf::50                       0                       # What write queue length does an incoming req see
system.mem_ctrl.wrQLenPdf::51                       0                       # What write queue length does an incoming req see
system.mem_ctrl.wrQLenPdf::52                       0                       # What write queue length does an incoming req see
system.mem_ctrl.wrQLenPdf::53                       0                       # What write queue length does an incoming req see
system.mem_ctrl.wrQLenPdf::54                       0                       # What write queue length does an incoming req see
system.mem_ctrl.wrQLenPdf::55                       0                       # What write queue length does an incoming req see
system.mem_ctrl.wrQLenPdf::56                       0                       # What write queue length does an incoming req see
system.mem_ctrl.wrQLenPdf::57                       0                       # What write queue length does an incoming req see
system.mem_ctrl.wrQLenPdf::58                       0                       # What write queue length does an incoming req see
system.mem_ctrl.wrQLenPdf::59                       0                       # What write queue length does an incoming req see
system.mem_ctrl.wrQLenPdf::60                       0                       # What write queue length does an incoming req see
system.mem_ctrl.wrQLenPdf::61                       0                       # What write queue length does an incoming req see
system.mem_ctrl.wrQLenPdf::62                       0                       # What write queue length does an incoming req see
system.mem_ctrl.wrQLenPdf::63                       0                       # What write queue length does an incoming req see
system.mem_ctrl.bytesPerActivate::samples       111545                       # Bytes accessed per row activation
system.mem_ctrl.bytesPerActivate::mean     961.142355                       # Bytes accessed per row activation
system.mem_ctrl.bytesPerActivate::gmean    934.418994                       # Bytes accessed per row activation
system.mem_ctrl.bytesPerActivate::stdev    166.150227                       # Bytes accessed per row activation
system.mem_ctrl.bytesPerActivate::0-127           346      0.31%      0.31% # Bytes accessed per row activation
system.mem_ctrl.bytesPerActivate::128-255          757      0.68%      0.99% # Bytes accessed per row activation
system.mem_ctrl.bytesPerActivate::256-383          554      0.50%      1.49% # Bytes accessed per row activation
system.mem_ctrl.bytesPerActivate::384-511          428      0.38%      1.87% # Bytes accessed per row activation
system.mem_ctrl.bytesPerActivate::512-639         4721      4.23%      6.10% # Bytes accessed per row activation
system.mem_ctrl.bytesPerActivate::640-767         7989      7.16%     13.26% # Bytes accessed per row activation
system.mem_ctrl.bytesPerActivate::768-895          715      0.64%     13.90% # Bytes accessed per row activation
system.mem_ctrl.bytesPerActivate::896-1023          428      0.38%     14.29% # Bytes accessed per row activation
system.mem_ctrl.bytesPerActivate::1024-1151        95607     85.71%    100.00% # Bytes accessed per row activation
system.mem_ctrl.bytesPerActivate::total        111545                       # Bytes accessed per row activation
system.mem_ctrl.rdPerTurnAround::samples         6738                       # Reads before turning the bus around for writes
system.mem_ctrl.rdPerTurnAround::mean      232.605076                       # Reads before turning the bus around for writes
system.mem_ctrl.rdPerTurnAround::gmean     229.301475                       # Reads before turning the bus around for writes
system.mem_ctrl.rdPerTurnAround::stdev     226.061747                       # Reads before turning the bus around for writes
system.mem_ctrl.rdPerTurnAround::0-1023          6734     99.94%     99.94% # Reads before turning the bus around for writes
system.mem_ctrl.rdPerTurnAround::1024-2047            3      0.04%     99.99% # Reads before turning the bus around for writes
system.mem_ctrl.rdPerTurnAround::18432-19455            1      0.01%    100.00% # Reads before turning the bus around for writes
system.mem_ctrl.rdPerTurnAround::total           6738                       # Reads before turning the bus around for writes
system.mem_ctrl.wrPerTurnAround::samples         6738                       # Writes before turning the bus around for reads
system.mem_ctrl.wrPerTurnAround::mean       16.005046                       # Writes before turning the bus around for reads
system.mem_ctrl.wrPerTurnAround::gmean      16.004755                       # Writes before turning the bus around for reads
system.mem_ctrl.wrPerTurnAround::stdev       0.100340                       # Writes before turning the bus around for reads
system.mem_ctrl.wrPerTurnAround::16              6721     99.75%     99.75% # Writes before turning the bus around for reads
system.mem_ctrl.wrPerTurnAround::18                17      0.25%    100.00% # Writes before turning the bus around for reads
system.mem_ctrl.wrPerTurnAround::total           6738                       # Writes before turning the bus around for reads
system.mem_ctrl.bytesReadDRAM               100309184                       # Total number of bytes read from DRAM
system.mem_ctrl.bytesReadWrQ                    42752                       # Total number of bytes read from write queue
system.mem_ctrl.bytesWritten                  6901888                       # Total number of bytes written to DRAM
system.mem_ctrl.bytesReadSys                 12536743                       # Total read bytes from the system interface side
system.mem_ctrl.bytesWrittenSys               6677264                       # Total written bytes from the system interface side
system.mem_ctrl.avgRdBW                       1003.07                       # Average DRAM read bandwidth in MiByte/s
system.mem_ctrl.avgWrBW                         69.02                       # Average achieved write bandwidth in MiByte/s
system.mem_ctrl.avgRdBWSys                     125.36                       # Average system read bandwidth in MiByte/s
system.mem_ctrl.avgWrBWSys                      66.77                       # Average system write bandwidth in MiByte/s
system.mem_ctrl.peakBW                       12800.00                       # Theoretical peak bandwidth in MiByte/s
system.mem_ctrl.busUtil                          8.38                       # Data bus utilization in percentage
system.mem_ctrl.busUtilRead                      7.84                       # Data bus utilization in percentage for reads
system.mem_ctrl.busUtilWrite                     0.54                       # Data bus utilization in percentage for writes
system.mem_ctrl.totGap                   100002412000                       # Total gap between requests
system.mem_ctrl.avgGap                       41248.55                       # Average gap between requests
system.mem_ctrl.masterReadBytes::.cpu.inst     12509312                       # Per-master bytes read from memory
system.mem_ctrl.masterReadBytes::.cpu.data        23561                       # Per-master bytes read from memory
system.mem_ctrl.masterWriteBytes::.cpu.data       691913                       # Per-master bytes write to memory
system.mem_ctrl.masterReadRate::.cpu.inst 125090006.509737968445                       # Per-master bytes read from memory rate (Bytes/sec)
system.mem_ctrl.masterReadRate::.cpu.data 235604.135813059605                       # Per-master bytes read from memory rate (Bytes/sec)
system.mem_ctrl.masterWriteRate::.cpu.data 6918957.787140677683                       # Per-master bytes write to memory rate (Bytes/sec)
system.mem_ctrl.masterReadAccesses::.cpu.inst      1563664                       # Per-master read serviced memory accesses
system.mem_ctrl.masterReadAccesses::.cpu.data         4335                       # Per-master read serviced memory accesses
system.mem_ctrl.masterWriteAccesses::.cpu.data       856387                       # Per-master write serviced memory accesses
system.mem_ctrl.masterReadTotalLat::.cpu.inst  34483807000                       # Per-master read total memory access latency
system.mem_ctrl.masterReadTotalLat::.cpu.data     86751000                       # Per-master read total memory access latency
system.mem_ctrl.masterWriteTotalLat::.cpu.data 2464510283250                       # Per-master write total memory access latency
system.mem_ctrl.masterReadAvgLat::.cpu.inst     22053.21                       # Per-master read average memory access latency
system.mem_ctrl.masterReadAvgLat::.cpu.data     20011.76                       # Per-master read average memory access latency
system.mem_ctrl.masterWriteAvgLat::.cpu.data   2877799.74                       # Per-master write average memory access latency
system.mem_ctrl.pageHitRate                     93.34                       # Row buffer hit rate, read and write combined
system.mem_ctrl.rank1.actEnergy              39862620                       # Energy for activate commands per rank (pJ)
system.mem_ctrl.rank1.preEnergy              21187485                       # Energy for precharge commands per rank (pJ)
system.mem_ctrl.rank1.readEnergy            148397760                       # Energy for read commands per rank (pJ)
system.mem_ctrl.rank1.writeEnergy           279953820                       # Energy for write commands per rank (pJ)
system.mem_ctrl.rank1.refreshEnergy      7893821520.000001                       # Energy for refresh commands per rank (pJ)
system.mem_ctrl.rank1.actBackEnergy        3169438830                       # Energy for active background per rank (pJ)
system.mem_ctrl.rank1.preBackEnergy       35731955040                       # Energy for precharge background per rank (pJ)
system.mem_ctrl.rank1.actPowerDownEnergy            0                       # Energy for active power-down per rank (pJ)
system.mem_ctrl.rank1.prePowerDownEnergy            0                       # Energy for precharge power-down per rank (pJ)
system.mem_ctrl.rank1.selfRefreshEnergy             0                       # Energy for self refresh per rank (pJ)
system.mem_ctrl.rank1.totalEnergy         47284617075                       # Total energy per rank (pJ)
system.mem_ctrl.rank1.averagePower         472.834402                       # Core power per rank (mW)
system.mem_ctrl.rank1.totalIdleTime                 0                       # Total Idle time Per DRAM Rank
system.mem_ctrl.rank1.memoryStateTime::IDLE  92824121000                       # Time in different power states
system.mem_ctrl.rank1.memoryStateTime::REF   3339180000                       # Time in different power states
system.mem_ctrl.rank1.memoryStateTime::SREF            0                       # Time in different power states
system.mem_ctrl.rank1.memoryStateTime::PRE_PDN            0                       # Time in different power states
system.mem_ctrl.rank1.memoryStateTime::ACT   3839188000                       # Time in different power states
system.mem_ctrl.rank1.memoryStateTime::ACT_PDN            0                       # Time in different power states
system.mem_ctrl.rank0.actEnergy             756575820                       # Energy for activate commands per rank (pJ)
system.mem_ctrl.rank0.preEnergy             402125790                       # Energy for precharge commands per rank (pJ)
system.mem_ctrl.rank0.readEnergy          11042345580                       # Energy for read commands per rank (pJ)
system.mem_ctrl.rank0.writeEnergy           282981420                       # Energy for write commands per rank (pJ)
system.mem_ctrl.rank0.refreshEnergy      7893821520.000001                       # Energy for refresh commands per rank (pJ)
system.mem_ctrl.rank0.actBackEnergy       43157090580                       # Energy for active background per rank (pJ)
system.mem_ctrl.rank0.preBackEnergy        2058143040                       # Energy for precharge background per rank (pJ)
system.mem_ctrl.rank0.actPowerDownEnergy            0                       # Energy for active power-down per rank (pJ)
system.mem_ctrl.rank0.prePowerDownEnergy            0                       # Energy for precharge power-down per rank (pJ)
system.mem_ctrl.rank0.selfRefreshEnergy             0                       # Energy for self refresh per rank (pJ)
system.mem_ctrl.rank0.totalEnergy         65593083750                       # Total energy per rank (pJ)
system.mem_ctrl.rank0.averagePower         655.914512                       # Core power per rank (mW)
system.mem_ctrl.rank0.totalIdleTime                 0                       # Total Idle time Per DRAM Rank
system.mem_ctrl.rank0.memoryStateTime::IDLE   3798138500                       # Time in different power states
system.mem_ctrl.rank0.memoryStateTime::REF   3339180000                       # Time in different power states
system.mem_ctrl.rank0.memoryStateTime::SREF            0                       # Time in different power states
system.mem_ctrl.rank0.memoryStateTime::PRE_PDN            0                       # Time in different power states
system.mem_ctrl.rank0.memoryStateTime::ACT  92865170500                       # Time in different power states
system.mem_ctrl.rank0.memoryStateTime::ACT_PDN            0                       # Time in different power states
system.mem_ctrl.power_state.pwrStateResidencyTicks::UNDEFINED 100002489000                       # Cumulative time (in ticks) in various power states
system.cache.blocked_cycles::no_mshrs               0                       # number of cycles access was blocked
system.cache.blocked_cycles::no_targets             0                       # number of cycles access was blocked
system.cache.blocked::no_mshrs                      0                       # number of cycles access was blocked
system.cache.blocked::no_targets                    0                       # number of cycles access was blocked
system.cache.avg_blocked_cycles::no_mshrs          nan                       # average number of cycles each access was blocked
system.cache.avg_blocked_cycles::no_targets          nan                       # average number of cycles each access was blocked
system.cache.replacements                           0                       # number of replacements
system.cache.power_state.pwrStateResidencyTicks::UNDEFINED 100002489000                       # Cumulative time (in ticks) in various power states
system.cache.tags.tagsinuse                         0                       # Cycle average of tags in use
system.cache.tags.total_refs                        0                       # Total number of references to valid blocks.
system.cache.tags.sampled_refs                      0                       # Sample count of references to valid blocks.
system.cache.tags.avg_refs                        nan                       # Average number of references to valid blocks.
system.cache.tags.warmup_cycle                      0                       # Cycle when the warmup percentage was hit.
system.cache.tags.tag_accesses                      0                       # Number of tag accesses
system.cache.tags.data_accesses                     0                       # Number of data accesses
system.cache.tags.power_state.pwrStateResidencyTicks::UNDEFINED 100002489000                       # Cumulative time (in ticks) in various power states
system.clk_domain.clock                          1000                       # Clock period in ticks
system.clk_domain.voltage_domain.voltage            1                       # Voltage in Volts
system.cachebus.snoops                              0                       # Total snoops (count)
system.cachebus.snoopTraffic                        0                       # Total snoop traffic (bytes)
system.cachebus.snoop_fanout::samples               0                       # Request fanout histogram
system.cachebus.snoop_fanout::mean                nan                       # Request fanout histogram
system.cachebus.snoop_fanout::stdev               nan                       # Request fanout histogram
system.cachebus.snoop_fanout::underflows            0                       # Request fanout histogram
system.cachebus.snoop_fanout::0                     0                       # Request fanout histogram
system.cachebus.snoop_fanout::overflows             0                       # Request fanout histogram
system.cachebus.snoop_fanout::min_value             0                       # Request fanout histogram
system.cachebus.snoop_fanout::max_value             0                       # Request fanout histogram
system.cachebus.snoop_fanout::total                 0                       # Request fanout histogram
system.cachebus.power_state.pwrStateResidencyTicks::UNDEFINED 100002489000                       # Cumulative time (in ticks) in various power states
system.cpu.dtb.walker.power_state.pwrStateResidencyTicks::UNDEFINED 100002489000                       # Cumulative time (in ticks) in various power states
system.cpu.interrupts.clk_domain.clock          16000                       # Clock period in ticks
system.cpu.itb.walker.power_state.pwrStateResidencyTicks::UNDEFINED 100002489000                       # Cumulative time (in ticks) in various power states
system.cpu.power_state.numTransitions               1                       # Number of power state transitions
system.cpu.power_state.pwrStateResidencyTicks::ON 100002489000                       # Cumulative time (in ticks) in various power states

---------- End Simulation Statistics   ----------
