
---------- Begin Simulation Statistics ----------
final_tick                                18029836000                       # Number of ticks from beginning of simulation (restored from checkpoints and never reset)
host_inst_rate                                  40180                       # Simulator instruction rate (inst/s)
host_mem_usage                               34204540                       # Number of bytes of host memory used
host_op_rate                                    72801                       # Simulator op (including micro ops) rate (op/s)
host_seconds                                    24.89                       # Real time elapsed on the host
host_tick_rate                              724425397                       # Simulator tick rate (ticks/s)
sim_freq                                 1000000000000                       # Frequency of simulated ticks
sim_insts                                     1000004                       # Number of instructions simulated
sim_ops                                       1811910                       # Number of ops (including micro ops) simulated
sim_seconds                                  0.018030                       # Number of seconds simulated
sim_ticks                                 18029836000                       # Number of ticks simulated
system.cpu.Branches                            201732                       # Number of branches fetched
system.cpu.committedInsts                     1000004                       # Number of instructions committed
system.cpu.committedOps                       1811910                       # Number of ops (including micro ops) committed
system.cpu.dtb.rdAccesses                      200968                       # TLB accesses on read requests
system.cpu.dtb.rdMisses                            18                       # TLB misses on read requests
system.cpu.dtb.wrAccesses                      246011                       # TLB accesses on write requests
system.cpu.dtb.wrMisses                         96178                       # TLB misses on write requests
system.cpu.idle_fraction                            0                       # Percentage of idle cycles
system.cpu.itb.rdAccesses                           0                       # TLB accesses on read requests
system.cpu.itb.rdMisses                             0                       # TLB misses on read requests
system.cpu.itb.wrAccesses                     1251641                       # TLB accesses on write requests
system.cpu.itb.wrMisses                            60                       # TLB misses on write requests
system.cpu.not_idle_fraction                        1                       # Percentage of non-idle cycles
system.cpu.numCycles                         18029825                       # number of cpu cycles simulated
system.cpu.numWorkItemsCompleted                    0                       # number of work items this cpu completed
system.cpu.numWorkItemsStarted                      0                       # number of work items this cpu started
system.cpu.num_busy_cycles                   18029825                       # Number of busy cycles
system.cpu.num_cc_register_reads              1012497                       # number of times the CC registers were read
system.cpu.num_cc_register_writes              794561                       # number of times the CC registers were written
system.cpu.num_conditional_control_insts       199551                       # number of instructions that are conditional controls
system.cpu.num_fp_alu_accesses                   2241                       # Number of float alu accesses
system.cpu.num_fp_insts                          2241                       # number of float instructions
system.cpu.num_fp_register_reads                 3642                       # number of times the floating registers were read
system.cpu.num_fp_register_writes                1736                       # number of times the floating registers were written
system.cpu.num_func_calls                        1392                       # number of times a function call or return occured
system.cpu.num_idle_cycles                          0                       # Number of idle cycles
system.cpu.num_int_alu_accesses               1857534                       # Number of integer alu accesses
system.cpu.num_int_insts                      1857534                       # number of integer instructions
system.cpu.num_int_register_reads             3422656                       # number of times the integer registers were read
system.cpu.num_int_register_writes            1410341                       # number of times the integer registers were written
system.cpu.num_load_insts                      200924                       # Number of load instructions
system.cpu.num_mem_refs                        446934                       # number of memory refs
system.cpu.num_store_insts                     246010                       # Number of store instructions
system.cpu.num_vec_alu_accesses                     0                       # Number of vector alu accesses
system.cpu.num_vec_insts                            0                       # number of vector instructions
system.cpu.num_vec_register_reads                   0                       # number of times the vector registers were read
system.cpu.num_vec_register_writes                  0                       # number of times the vector registers were written
system.cpu.op_class::No_OpClass                   846      0.05%      0.05% # Class of executed instruction
system.cpu.op_class::IntAlu                   1410281     75.82%     75.87% # Class of executed instruction
system.cpu.op_class::IntMult                      171      0.01%     75.88% # Class of executed instruction
system.cpu.op_class::IntDiv                        42      0.00%     75.88% # Class of executed instruction
system.cpu.op_class::FloatAdd                      13      0.00%     75.88% # Class of executed instruction
system.cpu.op_class::FloatCmp                       0      0.00%     75.88% # Class of executed instruction
system.cpu.op_class::FloatCvt                       0      0.00%     75.88% # Class of executed instruction
system.cpu.op_class::FloatMult                      0      0.00%     75.88% # Class of executed instruction
system.cpu.op_class::FloatMultAcc                   0      0.00%     75.88% # Class of executed instruction
system.cpu.op_class::FloatDiv                       0      0.00%     75.88% # Class of executed instruction
system.cpu.op_class::FloatMisc                      0      0.00%     75.88% # Class of executed instruction
system.cpu.op_class::FloatSqrt                      0      0.00%     75.88% # Class of executed instruction
system.cpu.op_class::SimdAdd                        0      0.00%     75.88% # Class of executed instruction
system.cpu.op_class::SimdAddAcc                     0      0.00%     75.88% # Class of executed instruction
system.cpu.op_class::SimdAlu                      956      0.05%     75.93% # Class of executed instruction
system.cpu.op_class::SimdCmp                        0      0.00%     75.93% # Class of executed instruction
system.cpu.op_class::SimdCvt                      336      0.02%     75.95% # Class of executed instruction
system.cpu.op_class::SimdMisc                     416      0.02%     75.97% # Class of executed instruction
system.cpu.op_class::SimdMult                       0      0.00%     75.97% # Class of executed instruction
system.cpu.op_class::SimdMultAcc                    0      0.00%     75.97% # Class of executed instruction
system.cpu.op_class::SimdShift                      0      0.00%     75.97% # Class of executed instruction
system.cpu.op_class::SimdShiftAcc                   0      0.00%     75.97% # Class of executed instruction
system.cpu.op_class::SimdDiv                        0      0.00%     75.97% # Class of executed instruction
system.cpu.op_class::SimdSqrt                       0      0.00%     75.97% # Class of executed instruction
system.cpu.op_class::SimdFloatAdd                   0      0.00%     75.97% # Class of executed instruction
system.cpu.op_class::SimdFloatAlu                   0      0.00%     75.97% # Class of executed instruction
system.cpu.op_class::SimdFloatCmp                   0      0.00%     75.97% # Class of executed instruction
system.cpu.op_class::SimdFloatCvt                   0      0.00%     75.97% # Class of executed instruction
system.cpu.op_class::SimdFloatDiv                   0      0.00%     75.97% # Class of executed instruction
system.cpu.op_class::SimdFloatMisc                  0      0.00%     75.97% # Class of executed instruction
system.cpu.op_class::SimdFloatMult                  0      0.00%     75.97% # Class of executed instruction
system.cpu.op_class::SimdFloatMultAcc               0      0.00%     75.97% # Class of executed instruction
system.cpu.op_class::SimdFloatSqrt                  0      0.00%     75.97% # Class of executed instruction
system.cpu.op_class::SimdReduceAdd                  0      0.00%     75.97% # Class of executed instruction
system.cpu.op_class::SimdReduceAlu                  0      0.00%     75.97% # Class of executed instruction
system.cpu.op_class::SimdReduceCmp                  0      0.00%     75.97% # Class of executed instruction
system.cpu.op_class::SimdFloatReduceAdd             0      0.00%     75.97% # Class of executed instruction
system.cpu.op_class::SimdFloatReduceCmp             0      0.00%     75.97% # Class of executed instruction
system.cpu.op_class::SimdAes                        0      0.00%     75.97% # Class of executed instruction
system.cpu.op_class::SimdAesMix                     0      0.00%     75.97% # Class of executed instruction
system.cpu.op_class::SimdSha1Hash                   0      0.00%     75.97% # Class of executed instruction
system.cpu.op_class::SimdSha1Hash2                  0      0.00%     75.97% # Class of executed instruction
system.cpu.op_class::SimdSha256Hash                 0      0.00%     75.97% # Class of executed instruction
system.cpu.op_class::SimdSha256Hash2                0      0.00%     75.97% # Class of executed instruction
system.cpu.op_class::SimdShaSigma2                  0      0.00%     75.97% # Class of executed instruction
system.cpu.op_class::SimdShaSigma3                  0      0.00%     75.97% # Class of executed instruction
system.cpu.op_class::SimdPredAlu                    0      0.00%     75.97% # Class of executed instruction
system.cpu.op_class::MemRead                   200608     10.79%     86.76% # Class of executed instruction
system.cpu.op_class::MemWrite                  245834     13.22%     99.97% # Class of executed instruction
system.cpu.op_class::FloatMemRead                 316      0.02%     99.99% # Class of executed instruction
system.cpu.op_class::FloatMemWrite                176      0.01%    100.00% # Class of executed instruction
system.cpu.op_class::IprAccess                      0      0.00%    100.00% # Class of executed instruction
system.cpu.op_class::InstPrefetch                   0      0.00%    100.00% # Class of executed instruction
system.cpu.op_class::total                    1859995                       # Class of executed instruction
system.cpu.workload.numSyscalls                    71                       # Number of system calls
system.dynamic_cache.flushTicks                     0                       # Ticks taken to flush
system.dynamic_cache.numFlushes                     0                       # Number of Flushes Taken
system.cache_small.demand_hits::.cpu.inst           78                       # number of demand (read+write) hits
system.cache_small.demand_hits::.cpu.data           10                       # number of demand (read+write) hits
system.cache_small.demand_hits::total              88                       # number of demand (read+write) hits
system.cache_small.overall_hits::.cpu.inst           78                       # number of overall hits
system.cache_small.overall_hits::.cpu.data           10                       # number of overall hits
system.cache_small.overall_hits::total             88                       # number of overall hits
system.cache_small.demand_misses::.cpu.inst          637                       # number of demand (read+write) misses
system.cache_small.demand_misses::.cpu.data       192624                       # number of demand (read+write) misses
system.cache_small.demand_misses::total        193261                       # number of demand (read+write) misses
system.cache_small.overall_misses::.cpu.inst          637                       # number of overall misses
system.cache_small.overall_misses::.cpu.data       192624                       # number of overall misses
system.cache_small.overall_misses::total       193261                       # number of overall misses
system.cache_small.demand_miss_latency::.cpu.inst     37611000                       # number of demand (read+write) miss cycles
system.cache_small.demand_miss_latency::.cpu.data  11786808000                       # number of demand (read+write) miss cycles
system.cache_small.demand_miss_latency::total  11824419000                       # number of demand (read+write) miss cycles
system.cache_small.overall_miss_latency::.cpu.inst     37611000                       # number of overall miss cycles
system.cache_small.overall_miss_latency::.cpu.data  11786808000                       # number of overall miss cycles
system.cache_small.overall_miss_latency::total  11824419000                       # number of overall miss cycles
system.cache_small.demand_accesses::.cpu.inst          715                       # number of demand (read+write) accesses
system.cache_small.demand_accesses::.cpu.data       192634                       # number of demand (read+write) accesses
system.cache_small.demand_accesses::total       193349                       # number of demand (read+write) accesses
system.cache_small.overall_accesses::.cpu.inst          715                       # number of overall (read+write) accesses
system.cache_small.overall_accesses::.cpu.data       192634                       # number of overall (read+write) accesses
system.cache_small.overall_accesses::total       193349                       # number of overall (read+write) accesses
system.cache_small.demand_miss_rate::.cpu.inst     0.890909                       # miss rate for demand accesses
system.cache_small.demand_miss_rate::.cpu.data     0.999948                       # miss rate for demand accesses
system.cache_small.demand_miss_rate::total     0.999545                       # miss rate for demand accesses
system.cache_small.overall_miss_rate::.cpu.inst     0.890909                       # miss rate for overall accesses
system.cache_small.overall_miss_rate::.cpu.data     0.999948                       # miss rate for overall accesses
system.cache_small.overall_miss_rate::total     0.999545                       # miss rate for overall accesses
system.cache_small.demand_avg_miss_latency::.cpu.inst 59043.956044                       # average overall miss latency
system.cache_small.demand_avg_miss_latency::.cpu.data 61190.755046                       # average overall miss latency
system.cache_small.demand_avg_miss_latency::total 61183.679066                       # average overall miss latency
system.cache_small.overall_avg_miss_latency::.cpu.inst 59043.956044                       # average overall miss latency
system.cache_small.overall_avg_miss_latency::.cpu.data 61190.755046                       # average overall miss latency
system.cache_small.overall_avg_miss_latency::total 61183.679066                       # average overall miss latency
system.cache_small.blocked_cycles::no_mshrs            0                       # number of cycles access was blocked
system.cache_small.blocked_cycles::no_targets            0                       # number of cycles access was blocked
system.cache_small.blocked::no_mshrs                0                       # number of cycles access was blocked
system.cache_small.blocked::no_targets              0                       # number of cycles access was blocked
system.cache_small.avg_blocked_cycles::no_mshrs          nan                       # average number of cycles each access was blocked
system.cache_small.avg_blocked_cycles::no_targets          nan                       # average number of cycles each access was blocked
system.cache_small.writebacks::.writebacks       192082                       # number of writebacks
system.cache_small.writebacks::total           192082                       # number of writebacks
system.cache_small.demand_mshr_misses::.cpu.inst          637                       # number of demand (read+write) MSHR misses
system.cache_small.demand_mshr_misses::.cpu.data       192624                       # number of demand (read+write) MSHR misses
system.cache_small.demand_mshr_misses::total       193261                       # number of demand (read+write) MSHR misses
system.cache_small.overall_mshr_misses::.cpu.inst          637                       # number of overall MSHR misses
system.cache_small.overall_mshr_misses::.cpu.data       192624                       # number of overall MSHR misses
system.cache_small.overall_mshr_misses::total       193261                       # number of overall MSHR misses
system.cache_small.demand_mshr_miss_latency::.cpu.inst     36337000                       # number of demand (read+write) MSHR miss cycles
system.cache_small.demand_mshr_miss_latency::.cpu.data  11401560000                       # number of demand (read+write) MSHR miss cycles
system.cache_small.demand_mshr_miss_latency::total  11437897000                       # number of demand (read+write) MSHR miss cycles
system.cache_small.overall_mshr_miss_latency::.cpu.inst     36337000                       # number of overall MSHR miss cycles
system.cache_small.overall_mshr_miss_latency::.cpu.data  11401560000                       # number of overall MSHR miss cycles
system.cache_small.overall_mshr_miss_latency::total  11437897000                       # number of overall MSHR miss cycles
system.cache_small.demand_mshr_miss_rate::.cpu.inst     0.890909                       # mshr miss rate for demand accesses
system.cache_small.demand_mshr_miss_rate::.cpu.data     0.999948                       # mshr miss rate for demand accesses
system.cache_small.demand_mshr_miss_rate::total     0.999545                       # mshr miss rate for demand accesses
system.cache_small.overall_mshr_miss_rate::.cpu.inst     0.890909                       # mshr miss rate for overall accesses
system.cache_small.overall_mshr_miss_rate::.cpu.data     0.999948                       # mshr miss rate for overall accesses
system.cache_small.overall_mshr_miss_rate::total     0.999545                       # mshr miss rate for overall accesses
system.cache_small.demand_avg_mshr_miss_latency::.cpu.inst 57043.956044                       # average overall mshr miss latency
system.cache_small.demand_avg_mshr_miss_latency::.cpu.data 59190.755046                       # average overall mshr miss latency
system.cache_small.demand_avg_mshr_miss_latency::total 59183.679066                       # average overall mshr miss latency
system.cache_small.overall_avg_mshr_miss_latency::.cpu.inst 57043.956044                       # average overall mshr miss latency
system.cache_small.overall_avg_mshr_miss_latency::.cpu.data 59190.755046                       # average overall mshr miss latency
system.cache_small.overall_avg_mshr_miss_latency::total 59183.679066                       # average overall mshr miss latency
system.cache_small.replacements                192202                       # number of replacements
system.cache_small.ReadReq_hits::.cpu.inst           78                       # number of ReadReq hits
system.cache_small.ReadReq_hits::.cpu.data           10                       # number of ReadReq hits
system.cache_small.ReadReq_hits::total             88                       # number of ReadReq hits
system.cache_small.ReadReq_misses::.cpu.inst          637                       # number of ReadReq misses
system.cache_small.ReadReq_misses::.cpu.data       192624                       # number of ReadReq misses
system.cache_small.ReadReq_misses::total       193261                       # number of ReadReq misses
system.cache_small.ReadReq_miss_latency::.cpu.inst     37611000                       # number of ReadReq miss cycles
system.cache_small.ReadReq_miss_latency::.cpu.data  11786808000                       # number of ReadReq miss cycles
system.cache_small.ReadReq_miss_latency::total  11824419000                       # number of ReadReq miss cycles
system.cache_small.ReadReq_accesses::.cpu.inst          715                       # number of ReadReq accesses(hits+misses)
system.cache_small.ReadReq_accesses::.cpu.data       192634                       # number of ReadReq accesses(hits+misses)
system.cache_small.ReadReq_accesses::total       193349                       # number of ReadReq accesses(hits+misses)
system.cache_small.ReadReq_miss_rate::.cpu.inst     0.890909                       # miss rate for ReadReq accesses
system.cache_small.ReadReq_miss_rate::.cpu.data     0.999948                       # miss rate for ReadReq accesses
system.cache_small.ReadReq_miss_rate::total     0.999545                       # miss rate for ReadReq accesses
system.cache_small.ReadReq_avg_miss_latency::.cpu.inst 59043.956044                       # average ReadReq miss latency
system.cache_small.ReadReq_avg_miss_latency::.cpu.data 61190.755046                       # average ReadReq miss latency
system.cache_small.ReadReq_avg_miss_latency::total 61183.679066                       # average ReadReq miss latency
system.cache_small.ReadReq_mshr_misses::.cpu.inst          637                       # number of ReadReq MSHR misses
system.cache_small.ReadReq_mshr_misses::.cpu.data       192624                       # number of ReadReq MSHR misses
system.cache_small.ReadReq_mshr_misses::total       193261                       # number of ReadReq MSHR misses
system.cache_small.ReadReq_mshr_miss_latency::.cpu.inst     36337000                       # number of ReadReq MSHR miss cycles
system.cache_small.ReadReq_mshr_miss_latency::.cpu.data  11401560000                       # number of ReadReq MSHR miss cycles
system.cache_small.ReadReq_mshr_miss_latency::total  11437897000                       # number of ReadReq MSHR miss cycles
system.cache_small.ReadReq_mshr_miss_rate::.cpu.inst     0.890909                       # mshr miss rate for ReadReq accesses
system.cache_small.ReadReq_mshr_miss_rate::.cpu.data     0.999948                       # mshr miss rate for ReadReq accesses
system.cache_small.ReadReq_mshr_miss_rate::total     0.999545                       # mshr miss rate for ReadReq accesses
system.cache_small.ReadReq_avg_mshr_miss_latency::.cpu.inst 57043.956044                       # average ReadReq mshr miss latency
system.cache_small.ReadReq_avg_mshr_miss_latency::.cpu.data 59190.755046                       # average ReadReq mshr miss latency
system.cache_small.ReadReq_avg_mshr_miss_latency::total 59183.679066                       # average ReadReq mshr miss latency
system.cache_small.WritebackDirty_hits::.writebacks       192352                       # number of WritebackDirty hits
system.cache_small.WritebackDirty_hits::total       192352                       # number of WritebackDirty hits
system.cache_small.WritebackDirty_accesses::.writebacks       192352                       # number of WritebackDirty accesses(hits+misses)
system.cache_small.WritebackDirty_accesses::total       192352                       # number of WritebackDirty accesses(hits+misses)
system.cache_small.power_state.pwrStateResidencyTicks::UNDEFINED  18029836000                       # Cumulative time (in ticks) in various power states
system.cache_small.tags.tagsinuse         1058.630793                       # Cycle average of tags in use
system.cache_small.tags.total_refs             384287                       # Total number of references to valid blocks.
system.cache_small.tags.sampled_refs           192202                       # Sample count of references to valid blocks.
system.cache_small.tags.avg_refs             1.999391                       # Average number of references to valid blocks.
system.cache_small.tags.warmup_cycle            76000                       # Cycle when the warmup percentage was hit.
system.cache_small.tags.occ_blocks::.writebacks     3.963993                       # Average occupied blocks per requestor
system.cache_small.tags.occ_blocks::.cpu.inst   539.432130                       # Average occupied blocks per requestor
system.cache_small.tags.occ_blocks::.cpu.data   515.234670                       # Average occupied blocks per requestor
system.cache_small.tags.occ_percent::.writebacks     0.000968                       # Average percentage of cache occupancy
system.cache_small.tags.occ_percent::.cpu.inst     0.131697                       # Average percentage of cache occupancy
system.cache_small.tags.occ_percent::.cpu.data     0.125790                       # Average percentage of cache occupancy
system.cache_small.tags.occ_percent::total     0.258455                       # Average percentage of cache occupancy
system.cache_small.tags.occ_task_id_blocks::1024         1065                       # Occupied blocks per task id
system.cache_small.tags.age_task_id_blocks_1024::0          110                       # Occupied blocks per task id
system.cache_small.tags.age_task_id_blocks_1024::1          146                       # Occupied blocks per task id
system.cache_small.tags.age_task_id_blocks_1024::4          809                       # Occupied blocks per task id
system.cache_small.tags.occ_task_id_percent::1024     0.260010                       # Percentage of cache occupancy per task id
system.cache_small.tags.tag_accesses           578968                       # Number of tag accesses
system.cache_small.tags.data_accesses          578968                       # Number of data accesses
system.cache_small.tags.power_state.pwrStateResidencyTicks::UNDEFINED  18029836000                       # Cumulative time (in ticks) in various power states
system.icache.demand_hits::.cpu.inst          1250884                       # number of demand (read+write) hits
system.icache.demand_hits::total              1250884                       # number of demand (read+write) hits
system.icache.overall_hits::.cpu.inst         1250884                       # number of overall hits
system.icache.overall_hits::total             1250884                       # number of overall hits
system.icache.demand_misses::.cpu.inst            757                       # number of demand (read+write) misses
system.icache.demand_misses::total                757                       # number of demand (read+write) misses
system.icache.overall_misses::.cpu.inst           757                       # number of overall misses
system.icache.overall_misses::total               757                       # number of overall misses
system.icache.demand_miss_latency::.cpu.inst     50571000                       # number of demand (read+write) miss cycles
system.icache.demand_miss_latency::total     50571000                       # number of demand (read+write) miss cycles
system.icache.overall_miss_latency::.cpu.inst     50571000                       # number of overall miss cycles
system.icache.overall_miss_latency::total     50571000                       # number of overall miss cycles
system.icache.demand_accesses::.cpu.inst      1251641                       # number of demand (read+write) accesses
system.icache.demand_accesses::total          1251641                       # number of demand (read+write) accesses
system.icache.overall_accesses::.cpu.inst      1251641                       # number of overall (read+write) accesses
system.icache.overall_accesses::total         1251641                       # number of overall (read+write) accesses
system.icache.demand_miss_rate::.cpu.inst     0.000605                       # miss rate for demand accesses
system.icache.demand_miss_rate::total        0.000605                       # miss rate for demand accesses
system.icache.overall_miss_rate::.cpu.inst     0.000605                       # miss rate for overall accesses
system.icache.overall_miss_rate::total       0.000605                       # miss rate for overall accesses
system.icache.demand_avg_miss_latency::.cpu.inst 66804.491413                       # average overall miss latency
system.icache.demand_avg_miss_latency::total 66804.491413                       # average overall miss latency
system.icache.overall_avg_miss_latency::.cpu.inst 66804.491413                       # average overall miss latency
system.icache.overall_avg_miss_latency::total 66804.491413                       # average overall miss latency
system.icache.blocked_cycles::no_mshrs              0                       # number of cycles access was blocked
system.icache.blocked_cycles::no_targets            0                       # number of cycles access was blocked
system.icache.blocked::no_mshrs                     0                       # number of cycles access was blocked
system.icache.blocked::no_targets                   0                       # number of cycles access was blocked
system.icache.avg_blocked_cycles::no_mshrs          nan                       # average number of cycles each access was blocked
system.icache.avg_blocked_cycles::no_targets          nan                       # average number of cycles each access was blocked
system.icache.demand_mshr_misses::.cpu.inst          757                       # number of demand (read+write) MSHR misses
system.icache.demand_mshr_misses::total           757                       # number of demand (read+write) MSHR misses
system.icache.overall_mshr_misses::.cpu.inst          757                       # number of overall MSHR misses
system.icache.overall_mshr_misses::total          757                       # number of overall MSHR misses
system.icache.demand_mshr_miss_latency::.cpu.inst     49057000                       # number of demand (read+write) MSHR miss cycles
system.icache.demand_mshr_miss_latency::total     49057000                       # number of demand (read+write) MSHR miss cycles
system.icache.overall_mshr_miss_latency::.cpu.inst     49057000                       # number of overall MSHR miss cycles
system.icache.overall_mshr_miss_latency::total     49057000                       # number of overall MSHR miss cycles
system.icache.demand_mshr_miss_rate::.cpu.inst     0.000605                       # mshr miss rate for demand accesses
system.icache.demand_mshr_miss_rate::total     0.000605                       # mshr miss rate for demand accesses
system.icache.overall_mshr_miss_rate::.cpu.inst     0.000605                       # mshr miss rate for overall accesses
system.icache.overall_mshr_miss_rate::total     0.000605                       # mshr miss rate for overall accesses
system.icache.demand_avg_mshr_miss_latency::.cpu.inst 64804.491413                       # average overall mshr miss latency
system.icache.demand_avg_mshr_miss_latency::total 64804.491413                       # average overall mshr miss latency
system.icache.overall_avg_mshr_miss_latency::.cpu.inst 64804.491413                       # average overall mshr miss latency
system.icache.overall_avg_mshr_miss_latency::total 64804.491413                       # average overall mshr miss latency
system.icache.replacements                        510                       # number of replacements
system.icache.ReadReq_hits::.cpu.inst         1250884                       # number of ReadReq hits
system.icache.ReadReq_hits::total             1250884                       # number of ReadReq hits
system.icache.ReadReq_misses::.cpu.inst           757                       # number of ReadReq misses
system.icache.ReadReq_misses::total               757                       # number of ReadReq misses
system.icache.ReadReq_miss_latency::.cpu.inst     50571000                       # number of ReadReq miss cycles
system.icache.ReadReq_miss_latency::total     50571000                       # number of ReadReq miss cycles
system.icache.ReadReq_accesses::.cpu.inst      1251641                       # number of ReadReq accesses(hits+misses)
system.icache.ReadReq_accesses::total         1251641                       # number of ReadReq accesses(hits+misses)
system.icache.ReadReq_miss_rate::.cpu.inst     0.000605                       # miss rate for ReadReq accesses
system.icache.ReadReq_miss_rate::total       0.000605                       # miss rate for ReadReq accesses
system.icache.ReadReq_avg_miss_latency::.cpu.inst 66804.491413                       # average ReadReq miss latency
system.icache.ReadReq_avg_miss_latency::total 66804.491413                       # average ReadReq miss latency
system.icache.ReadReq_mshr_misses::.cpu.inst          757                       # number of ReadReq MSHR misses
system.icache.ReadReq_mshr_misses::total          757                       # number of ReadReq MSHR misses
system.icache.ReadReq_mshr_miss_latency::.cpu.inst     49057000                       # number of ReadReq MSHR miss cycles
system.icache.ReadReq_mshr_miss_latency::total     49057000                       # number of ReadReq MSHR miss cycles
system.icache.ReadReq_mshr_miss_rate::.cpu.inst     0.000605                       # mshr miss rate for ReadReq accesses
system.icache.ReadReq_mshr_miss_rate::total     0.000605                       # mshr miss rate for ReadReq accesses
system.icache.ReadReq_avg_mshr_miss_latency::.cpu.inst 64804.491413                       # average ReadReq mshr miss latency
system.icache.ReadReq_avg_mshr_miss_latency::total 64804.491413                       # average ReadReq mshr miss latency
system.icache.power_state.pwrStateResidencyTicks::UNDEFINED  18029836000                       # Cumulative time (in ticks) in various power states
system.icache.tags.tagsinuse               246.339850                       # Cycle average of tags in use
system.icache.tags.total_refs                   34102                       # Total number of references to valid blocks.
system.icache.tags.sampled_refs                   510                       # Sample count of references to valid blocks.
system.icache.tags.avg_refs                 66.866667                       # Average number of references to valid blocks.
system.icache.tags.warmup_cycle                 82000                       # Cycle when the warmup percentage was hit.
system.icache.tags.occ_blocks::.cpu.inst   246.339850                       # Average occupied blocks per requestor
system.icache.tags.occ_percent::.cpu.inst     0.962265                       # Average percentage of cache occupancy
system.icache.tags.occ_percent::total        0.962265                       # Average percentage of cache occupancy
system.icache.tags.occ_task_id_blocks::1024          247                       # Occupied blocks per task id
system.icache.tags.age_task_id_blocks_1024::4          247                       # Occupied blocks per task id
system.icache.tags.occ_task_id_percent::1024     0.964844                       # Percentage of cache occupancy per task id
system.icache.tags.tag_accesses               1252398                       # Number of tag accesses
system.icache.tags.data_accesses              1252398                       # Number of data accesses
system.icache.tags.power_state.pwrStateResidencyTicks::UNDEFINED  18029836000                       # Cumulative time (in ticks) in various power states
system.membus.trans_dist::ReadReq              193261                       # Transaction distribution
system.membus.trans_dist::ReadResp             193261                       # Transaction distribution
system.membus.trans_dist::WritebackDirty       192082                       # Transaction distribution
system.membus.pkt_count_system.cache_small.mem_side::system.mem_ctrl.port       578604                       # Packet count per connected master and slave (bytes)
system.membus.pkt_count_system.cache_small.mem_side::total       578604                       # Packet count per connected master and slave (bytes)
system.membus.pkt_count::total                 578604                       # Packet count per connected master and slave (bytes)
system.membus.pkt_size_system.cache_small.mem_side::system.mem_ctrl.port     24661952                       # Cumulative packet size per connected master and slave (bytes)
system.membus.pkt_size_system.cache_small.mem_side::total     24661952                       # Cumulative packet size per connected master and slave (bytes)
system.membus.pkt_size::total                24661952                       # Cumulative packet size per connected master and slave (bytes)
system.membus.reqLayer2.occupancy          1153671000                       # Layer occupancy (ticks)
system.membus.reqLayer2.utilization               6.4                       # Layer utilization (%)
system.membus.respLayer1.occupancy         1022815750                       # Layer occupancy (ticks)
system.membus.respLayer1.utilization              5.7                       # Layer utilization (%)
system.membus.power_state.pwrStateResidencyTicks::UNDEFINED  18029836000                       # Cumulative time (in ticks) in various power states
system.mem_ctrl.bytes_read::.cpu.inst           40768                       # Number of bytes read from this memory
system.mem_ctrl.bytes_read::.cpu.data        12327936                       # Number of bytes read from this memory
system.mem_ctrl.bytes_read::total            12368704                       # Number of bytes read from this memory
system.mem_ctrl.bytes_inst_read::.cpu.inst        40768                       # Number of instructions bytes read from this memory
system.mem_ctrl.bytes_inst_read::total          40768                       # Number of instructions bytes read from this memory
system.mem_ctrl.bytes_written::.writebacks     12293248                       # Number of bytes written to this memory
system.mem_ctrl.bytes_written::total         12293248                       # Number of bytes written to this memory
system.mem_ctrl.num_reads::.cpu.inst              637                       # Number of read requests responded to by this memory
system.mem_ctrl.num_reads::.cpu.data           192624                       # Number of read requests responded to by this memory
system.mem_ctrl.num_reads::total               193261                       # Number of read requests responded to by this memory
system.mem_ctrl.num_writes::.writebacks        192082                       # Number of write requests responded to by this memory
system.mem_ctrl.num_writes::total              192082                       # Number of write requests responded to by this memory
system.mem_ctrl.bw_read::.cpu.inst            2261141                       # Total read bandwidth from this memory (bytes/s)
system.mem_ctrl.bw_read::.cpu.data          683751976                       # Total read bandwidth from this memory (bytes/s)
system.mem_ctrl.bw_read::total              686013117                       # Total read bandwidth from this memory (bytes/s)
system.mem_ctrl.bw_inst_read::.cpu.inst       2261141                       # Instruction read bandwidth from this memory (bytes/s)
system.mem_ctrl.bw_inst_read::total           2261141                       # Instruction read bandwidth from this memory (bytes/s)
system.mem_ctrl.bw_write::.writebacks       681828054                       # Write bandwidth from this memory (bytes/s)
system.mem_ctrl.bw_write::total             681828054                       # Write bandwidth from this memory (bytes/s)
system.mem_ctrl.bw_total::.writebacks       681828054                       # Total bandwidth to/from this memory (bytes/s)
system.mem_ctrl.bw_total::.cpu.inst           2261141                       # Total bandwidth to/from this memory (bytes/s)
system.mem_ctrl.bw_total::.cpu.data         683751976                       # Total bandwidth to/from this memory (bytes/s)
system.mem_ctrl.bw_total::total            1367841172                       # Total bandwidth to/from this memory (bytes/s)
system.mem_ctrl.avgPriority_.writebacks::samples    192082.00                       # Average QoS priority value for accepted requests
system.mem_ctrl.avgPriority_.cpu.inst::samples       637.00                       # Average QoS priority value for accepted requests
system.mem_ctrl.avgPriority_.cpu.data::samples    192624.00                       # Average QoS priority value for accepted requests
system.mem_ctrl.priorityMinLatency       0.000000018750                       # per QoS priority minimum request to response latency (s)
system.mem_ctrl.priorityMaxLatency       0.000023949250                       # per QoS priority maximum request to response latency (s)
system.mem_ctrl.numReadWriteTurnArounds         12003                       # Number of turnarounds from READ to WRITE
system.mem_ctrl.numWriteReadTurnArounds         12003                       # Number of turnarounds from WRITE to READ
system.mem_ctrl.numStayReadState               571230                       # Number of times bus staying in READ state
system.mem_ctrl.numStayWriteState              180050                       # Number of times bus staying in WRITE state
system.mem_ctrl.readReqs                       193261                       # Number of read requests accepted
system.mem_ctrl.writeReqs                      192082                       # Number of write requests accepted
system.mem_ctrl.readBursts                     193261                       # Number of DRAM read bursts, including those serviced by the write queue
system.mem_ctrl.writeBursts                    192082                       # Number of DRAM write bursts, including those merged in the write queue
system.mem_ctrl.servicedByWrQ                       0                       # Number of DRAM read bursts serviced by the write queue
system.mem_ctrl.mergedWrBursts                      0                       # Number of DRAM write bursts merged with an existing one
system.mem_ctrl.neitherReadNorWriteReqs             0                       # Number of requests that are neither read nor write
system.mem_ctrl.perBankRdBursts::0              12143                       # Per bank write bursts
system.mem_ctrl.perBankRdBursts::1              12057                       # Per bank write bursts
system.mem_ctrl.perBankRdBursts::2              12085                       # Per bank write bursts
system.mem_ctrl.perBankRdBursts::3              12041                       # Per bank write bursts
system.mem_ctrl.perBankRdBursts::4              12107                       # Per bank write bursts
system.mem_ctrl.perBankRdBursts::5              12063                       # Per bank write bursts
system.mem_ctrl.perBankRdBursts::6              12065                       # Per bank write bursts
system.mem_ctrl.perBankRdBursts::7              12122                       # Per bank write bursts
system.mem_ctrl.perBankRdBursts::8              12049                       # Per bank write bursts
system.mem_ctrl.perBankRdBursts::9              12034                       # Per bank write bursts
system.mem_ctrl.perBankRdBursts::10             12087                       # Per bank write bursts
system.mem_ctrl.perBankRdBursts::11             12055                       # Per bank write bursts
system.mem_ctrl.perBankRdBursts::12             12086                       # Per bank write bursts
system.mem_ctrl.perBankRdBursts::13             12072                       # Per bank write bursts
system.mem_ctrl.perBankRdBursts::14             12127                       # Per bank write bursts
system.mem_ctrl.perBankRdBursts::15             12068                       # Per bank write bursts
system.mem_ctrl.perBankWrBursts::0              12000                       # Per bank write bursts
system.mem_ctrl.perBankWrBursts::1              12000                       # Per bank write bursts
system.mem_ctrl.perBankWrBursts::2              12000                       # Per bank write bursts
system.mem_ctrl.perBankWrBursts::3              12008                       # Per bank write bursts
system.mem_ctrl.perBankWrBursts::4              12010                       # Per bank write bursts
system.mem_ctrl.perBankWrBursts::5              12011                       # Per bank write bursts
system.mem_ctrl.perBankWrBursts::6              12008                       # Per bank write bursts
system.mem_ctrl.perBankWrBursts::7              12004                       # Per bank write bursts
system.mem_ctrl.perBankWrBursts::8              12001                       # Per bank write bursts
system.mem_ctrl.perBankWrBursts::9              12000                       # Per bank write bursts
system.mem_ctrl.perBankWrBursts::10             12000                       # Per bank write bursts
system.mem_ctrl.perBankWrBursts::11             12001                       # Per bank write bursts
system.mem_ctrl.perBankWrBursts::12             12002                       # Per bank write bursts
system.mem_ctrl.perBankWrBursts::13             12002                       # Per bank write bursts
system.mem_ctrl.perBankWrBursts::14             12003                       # Per bank write bursts
system.mem_ctrl.perBankWrBursts::15             12001                       # Per bank write bursts
system.mem_ctrl.avgRdQLen                        1.00                       # Average read queue length when enqueuing
system.mem_ctrl.avgWrQLen                       25.48                       # Average write queue length when enqueuing
system.mem_ctrl.totQLat                    1766651250                       # Total ticks spent queuing
system.mem_ctrl.totBusLat                   966305000                       # Total ticks spent in databus transfers
system.mem_ctrl.totMemAccLat               5390295000                       # Total ticks spent from burst creation until serviced by the DRAM
system.mem_ctrl.avgQLat                       9141.27                       # Average queueing delay per DRAM burst
system.mem_ctrl.avgBusLat                     5000.00                       # Average bus latency per DRAM burst
system.mem_ctrl.avgMemAccLat                 27891.27                       # Average memory access latency per DRAM burst
system.mem_ctrl.numRdRetry                          0                       # Number of times read queue was full causing retry
system.mem_ctrl.numWrRetry                          0                       # Number of times write queue was full causing retry
system.mem_ctrl.readRowHits                    166673                       # Number of row buffer hits during reads
system.mem_ctrl.writeRowHits                   165752                       # Number of row buffer hits during writes
system.mem_ctrl.readRowHitRate                  86.24                       # Row buffer hit rate for reads
system.mem_ctrl.writeRowHitRate                 86.29                       # Row buffer hit rate for writes
system.mem_ctrl.readPktSize::0                      0                       # Read request sizes (log2)
system.mem_ctrl.readPktSize::1                      0                       # Read request sizes (log2)
system.mem_ctrl.readPktSize::2                      0                       # Read request sizes (log2)
system.mem_ctrl.readPktSize::3                      0                       # Read request sizes (log2)
system.mem_ctrl.readPktSize::4                      0                       # Read request sizes (log2)
system.mem_ctrl.readPktSize::5                      0                       # Read request sizes (log2)
system.mem_ctrl.readPktSize::6                 193261                       # Read request sizes (log2)
system.mem_ctrl.writePktSize::0                     0                       # Write request sizes (log2)
system.mem_ctrl.writePktSize::1                     0                       # Write request sizes (log2)
system.mem_ctrl.writePktSize::2                     0                       # Write request sizes (log2)
system.mem_ctrl.writePktSize::3                     0                       # Write request sizes (log2)
system.mem_ctrl.writePktSize::4                     0                       # Write request sizes (log2)
system.mem_ctrl.writePktSize::5                     0                       # Write request sizes (log2)
system.mem_ctrl.writePktSize::6                192082                       # Write request sizes (log2)
system.mem_ctrl.rdQLenPdf::0                   193260                       # What read queue length does an incoming req see
system.mem_ctrl.rdQLenPdf::1                        1                       # What read queue length does an incoming req see
system.mem_ctrl.rdQLenPdf::2                        0                       # What read queue length does an incoming req see
system.mem_ctrl.rdQLenPdf::3                        0                       # What read queue length does an incoming req see
system.mem_ctrl.rdQLenPdf::4                        0                       # What read queue length does an incoming req see
system.mem_ctrl.rdQLenPdf::5                        0                       # What read queue length does an incoming req see
system.mem_ctrl.rdQLenPdf::6                        0                       # What read queue length does an incoming req see
system.mem_ctrl.rdQLenPdf::7                        0                       # What read queue length does an incoming req see
system.mem_ctrl.rdQLenPdf::8                        0                       # What read queue length does an incoming req see
system.mem_ctrl.rdQLenPdf::9                        0                       # What read queue length does an incoming req see
system.mem_ctrl.rdQLenPdf::10                       0                       # What read queue length does an incoming req see
system.mem_ctrl.rdQLenPdf::11                       0                       # What read queue length does an incoming req see
system.mem_ctrl.rdQLenPdf::12                       0                       # What read queue length does an incoming req see
system.mem_ctrl.rdQLenPdf::13                       0                       # What read queue length does an incoming req see
system.mem_ctrl.rdQLenPdf::14                       0                       # What read queue length does an incoming req see
system.mem_ctrl.rdQLenPdf::15                       0                       # What read queue length does an incoming req see
system.mem_ctrl.rdQLenPdf::16                       0                       # What read queue length does an incoming req see
system.mem_ctrl.rdQLenPdf::17                       0                       # What read queue length does an incoming req see
system.mem_ctrl.rdQLenPdf::18                       0                       # What read queue length does an incoming req see
system.mem_ctrl.rdQLenPdf::19                       0                       # What read queue length does an incoming req see
system.mem_ctrl.rdQLenPdf::20                       0                       # What read queue length does an incoming req see
system.mem_ctrl.rdQLenPdf::21                       0                       # What read queue length does an incoming req see
system.mem_ctrl.rdQLenPdf::22                       0                       # What read queue length does an incoming req see
system.mem_ctrl.rdQLenPdf::23                       0                       # What read queue length does an incoming req see
system.mem_ctrl.rdQLenPdf::24                       0                       # What read queue length does an incoming req see
system.mem_ctrl.rdQLenPdf::25                       0                       # What read queue length does an incoming req see
system.mem_ctrl.rdQLenPdf::26                       0                       # What read queue length does an incoming req see
system.mem_ctrl.rdQLenPdf::27                       0                       # What read queue length does an incoming req see
system.mem_ctrl.rdQLenPdf::28                       0                       # What read queue length does an incoming req see
system.mem_ctrl.rdQLenPdf::29                       0                       # What read queue length does an incoming req see
system.mem_ctrl.rdQLenPdf::30                       0                       # What read queue length does an incoming req see
system.mem_ctrl.rdQLenPdf::31                       0                       # What read queue length does an incoming req see
system.mem_ctrl.wrQLenPdf::0                        1                       # What write queue length does an incoming req see
system.mem_ctrl.wrQLenPdf::1                        1                       # What write queue length does an incoming req see
system.mem_ctrl.wrQLenPdf::2                        1                       # What write queue length does an incoming req see
system.mem_ctrl.wrQLenPdf::3                        1                       # What write queue length does an incoming req see
system.mem_ctrl.wrQLenPdf::4                        1                       # What write queue length does an incoming req see
system.mem_ctrl.wrQLenPdf::5                        1                       # What write queue length does an incoming req see
system.mem_ctrl.wrQLenPdf::6                        1                       # What write queue length does an incoming req see
system.mem_ctrl.wrQLenPdf::7                        1                       # What write queue length does an incoming req see
system.mem_ctrl.wrQLenPdf::8                        1                       # What write queue length does an incoming req see
system.mem_ctrl.wrQLenPdf::9                        1                       # What write queue length does an incoming req see
system.mem_ctrl.wrQLenPdf::10                       1                       # What write queue length does an incoming req see
system.mem_ctrl.wrQLenPdf::11                       1                       # What write queue length does an incoming req see
system.mem_ctrl.wrQLenPdf::12                       1                       # What write queue length does an incoming req see
system.mem_ctrl.wrQLenPdf::13                       1                       # What write queue length does an incoming req see
system.mem_ctrl.wrQLenPdf::14                       1                       # What write queue length does an incoming req see
system.mem_ctrl.wrQLenPdf::15                       2                       # What write queue length does an incoming req see
system.mem_ctrl.wrQLenPdf::16                       2                       # What write queue length does an incoming req see
system.mem_ctrl.wrQLenPdf::17                   12004                       # What write queue length does an incoming req see
system.mem_ctrl.wrQLenPdf::18                   12004                       # What write queue length does an incoming req see
system.mem_ctrl.wrQLenPdf::19                   12005                       # What write queue length does an incoming req see
system.mem_ctrl.wrQLenPdf::20                   12004                       # What write queue length does an incoming req see
system.mem_ctrl.wrQLenPdf::21                   12004                       # What write queue length does an incoming req see
system.mem_ctrl.wrQLenPdf::22                   12004                       # What write queue length does an incoming req see
system.mem_ctrl.wrQLenPdf::23                   12004                       # What write queue length does an incoming req see
system.mem_ctrl.wrQLenPdf::24                   12004                       # What write queue length does an incoming req see
system.mem_ctrl.wrQLenPdf::25                   12004                       # What write queue length does an incoming req see
system.mem_ctrl.wrQLenPdf::26                   12004                       # What write queue length does an incoming req see
system.mem_ctrl.wrQLenPdf::27                   12004                       # What write queue length does an incoming req see
system.mem_ctrl.wrQLenPdf::28                   12004                       # What write queue length does an incoming req see
system.mem_ctrl.wrQLenPdf::29                   12004                       # What write queue length does an incoming req see
system.mem_ctrl.wrQLenPdf::30                   12004                       # What write queue length does an incoming req see
system.mem_ctrl.wrQLenPdf::31                   12003                       # What write queue length does an incoming req see
system.mem_ctrl.wrQLenPdf::32                   12003                       # What write queue length does an incoming req see
system.mem_ctrl.wrQLenPdf::33                       0                       # What write queue length does an incoming req see
system.mem_ctrl.wrQLenPdf::34                       0                       # What write queue length does an incoming req see
system.mem_ctrl.wrQLenPdf::35                       0                       # What write queue length does an incoming req see
system.mem_ctrl.wrQLenPdf::36                       0                       # What write queue length does an incoming req see
system.mem_ctrl.wrQLenPdf::37                       0                       # What write queue length does an incoming req see
system.mem_ctrl.wrQLenPdf::38                       0                       # What write queue length does an incoming req see
system.mem_ctrl.wrQLenPdf::39                       0                       # What write queue length does an incoming req see
system.mem_ctrl.wrQLenPdf::40                       0                       # What write queue length does an incoming req see
system.mem_ctrl.wrQLenPdf::41                       0                       # What write queue length does an incoming req see
system.mem_ctrl.wrQLenPdf::42                       0                       # What write queue length does an incoming req see
system.mem_ctrl.wrQLenPdf::43                       0                       # What write queue length does an incoming req see
system.mem_ctrl.wrQLenPdf::44                       0                       # What write queue length does an incoming req see
system.mem_ctrl.wrQLenPdf::45                       0                       # What write queue length does an incoming req see
system.mem_ctrl.wrQLenPdf::46                       0                       # What write queue length does an incoming req see
system.mem_ctrl.wrQLenPdf::47                       0                       # What write queue length does an incoming req see
system.mem_ctrl.wrQLenPdf::48                       0                       # What write queue length does an incoming req see
system.mem_ctrl.wrQLenPdf::49                       0                       # What write queue length does an incoming req see
system.mem_ctrl.wrQLenPdf::50                       0                       # What write queue length does an incoming req see
system.mem_ctrl.wrQLenPdf::51                       0                       # What write queue length does an incoming req see
system.mem_ctrl.wrQLenPdf::52                       0                       # What write queue length does an incoming req see
system.mem_ctrl.wrQLenPdf::53                       0                       # What write queue length does an incoming req see
system.mem_ctrl.wrQLenPdf::54                       0                       # What write queue length does an incoming req see
system.mem_ctrl.wrQLenPdf::55                       0                       # What write queue length does an incoming req see
system.mem_ctrl.wrQLenPdf::56                       0                       # What write queue length does an incoming req see
system.mem_ctrl.wrQLenPdf::57                       0                       # What write queue length does an incoming req see
system.mem_ctrl.wrQLenPdf::58                       0                       # What write queue length does an incoming req see
system.mem_ctrl.wrQLenPdf::59                       0                       # What write queue length does an incoming req see
system.mem_ctrl.wrQLenPdf::60                       0                       # What write queue length does an incoming req see
system.mem_ctrl.wrQLenPdf::61                       0                       # What write queue length does an incoming req see
system.mem_ctrl.wrQLenPdf::62                       0                       # What write queue length does an incoming req see
system.mem_ctrl.wrQLenPdf::63                       0                       # What write queue length does an incoming req see
system.mem_ctrl.bytesPerActivate::samples        52876                       # Bytes accessed per row activation
system.mem_ctrl.bytesPerActivate::mean     466.282775                       # Bytes accessed per row activation
system.mem_ctrl.bytesPerActivate::gmean    445.788267                       # Bytes accessed per row activation
system.mem_ctrl.bytesPerActivate::stdev    106.526039                       # Bytes accessed per row activation
system.mem_ctrl.bytesPerActivate::0-127           101      0.19%      0.19% # Bytes accessed per row activation
system.mem_ctrl.bytesPerActivate::128-255         2377      4.50%      4.69% # Bytes accessed per row activation
system.mem_ctrl.bytesPerActivate::256-383         4597      8.69%     13.38% # Bytes accessed per row activation
system.mem_ctrl.bytesPerActivate::384-511         2308      4.36%     17.75% # Bytes accessed per row activation
system.mem_ctrl.bytesPerActivate::512-639        43467     82.21%     99.95% # Bytes accessed per row activation
system.mem_ctrl.bytesPerActivate::640-767           10      0.02%     99.97% # Bytes accessed per row activation
system.mem_ctrl.bytesPerActivate::768-895            5      0.01%     99.98% # Bytes accessed per row activation
system.mem_ctrl.bytesPerActivate::896-1023            5      0.01%     99.99% # Bytes accessed per row activation
system.mem_ctrl.bytesPerActivate::1024-1151            6      0.01%    100.00% # Bytes accessed per row activation
system.mem_ctrl.bytesPerActivate::total         52876                       # Bytes accessed per row activation
system.mem_ctrl.rdPerTurnAround::samples        12003                       # Reads before turning the bus around for writes
system.mem_ctrl.rdPerTurnAround::mean       16.099892                       # Reads before turning the bus around for writes
system.mem_ctrl.rdPerTurnAround::gmean      16.006007                       # Reads before turning the bus around for writes
system.mem_ctrl.rdPerTurnAround::stdev      10.916589                       # Reads before turning the bus around for writes
system.mem_ctrl.rdPerTurnAround::0-63           12002     99.99%     99.99% # Reads before turning the bus around for writes
system.mem_ctrl.rdPerTurnAround::1152-1215            1      0.01%    100.00% # Reads before turning the bus around for writes
system.mem_ctrl.rdPerTurnAround::total          12003                       # Reads before turning the bus around for writes
system.mem_ctrl.wrPerTurnAround::samples        12003                       # Writes before turning the bus around for reads
system.mem_ctrl.wrPerTurnAround::mean       16.000250                       # Writes before turning the bus around for reads
system.mem_ctrl.wrPerTurnAround::gmean      16.000229                       # Writes before turning the bus around for reads
system.mem_ctrl.wrPerTurnAround::stdev       0.027383                       # Writes before turning the bus around for reads
system.mem_ctrl.wrPerTurnAround::16             12002     99.99%     99.99% # Writes before turning the bus around for reads
system.mem_ctrl.wrPerTurnAround::19                 1      0.01%    100.00% # Writes before turning the bus around for reads
system.mem_ctrl.wrPerTurnAround::total          12003                       # Writes before turning the bus around for reads
system.mem_ctrl.bytesReadDRAM                12368704                       # Total number of bytes read from DRAM
system.mem_ctrl.bytesReadWrQ                        0                       # Total number of bytes read from write queue
system.mem_ctrl.bytesWritten                 12291264                       # Total number of bytes written to DRAM
system.mem_ctrl.bytesReadSys                 12368704                       # Total read bytes from the system interface side
system.mem_ctrl.bytesWrittenSys              12293248                       # Total written bytes from the system interface side
system.mem_ctrl.avgRdBW                        686.01                       # Average DRAM read bandwidth in MiByte/s
system.mem_ctrl.avgWrBW                        681.72                       # Average achieved write bandwidth in MiByte/s
system.mem_ctrl.avgRdBWSys                     686.01                       # Average system read bandwidth in MiByte/s
system.mem_ctrl.avgWrBWSys                     681.83                       # Average system write bandwidth in MiByte/s
system.mem_ctrl.peakBW                       12800.00                       # Theoretical peak bandwidth in MiByte/s
system.mem_ctrl.busUtil                         10.69                       # Data bus utilization in percentage
system.mem_ctrl.busUtilRead                      5.36                       # Data bus utilization in percentage for reads
system.mem_ctrl.busUtilWrite                     5.33                       # Data bus utilization in percentage for writes
system.mem_ctrl.totGap                    18029792000                       # Total gap between requests
system.mem_ctrl.avgGap                       46788.94                       # Average gap between requests
system.mem_ctrl.masterReadBytes::.cpu.inst        40768                       # Per-master bytes read from memory
system.mem_ctrl.masterReadBytes::.cpu.data     12327936                       # Per-master bytes read from memory
system.mem_ctrl.masterWriteBytes::.writebacks     12291264                       # Per-master bytes write to memory
system.mem_ctrl.masterReadRate::.cpu.inst 2261140.922191416379                       # Per-master bytes read from memory rate (Bytes/sec)
system.mem_ctrl.masterReadRate::.cpu.data 683751976.446152925491                       # Per-master bytes read from memory rate (Bytes/sec)
system.mem_ctrl.masterWriteRate::.writebacks 681718014.517713785172                       # Per-master bytes write to memory rate (Bytes/sec)
system.mem_ctrl.masterReadAccesses::.cpu.inst          637                       # Per-master read serviced memory accesses
system.mem_ctrl.masterReadAccesses::.cpu.data       192624                       # Per-master read serviced memory accesses
system.mem_ctrl.masterWriteAccesses::.writebacks       192082                       # Per-master write serviced memory accesses
system.mem_ctrl.masterReadTotalLat::.cpu.inst     16377250                       # Per-master read total memory access latency
system.mem_ctrl.masterReadTotalLat::.cpu.data   5373917750                       # Per-master read total memory access latency
system.mem_ctrl.masterWriteTotalLat::.writebacks 441733945750                       # Per-master write total memory access latency
system.mem_ctrl.masterReadAvgLat::.cpu.inst     25709.97                       # Per-master read average memory access latency
system.mem_ctrl.masterReadAvgLat::.cpu.data     27898.48                       # Per-master read average memory access latency
system.mem_ctrl.masterWriteAvgLat::.writebacks   2299715.46                       # Per-master write average memory access latency
system.mem_ctrl.pageHitRate                     86.27                       # Row buffer hit rate, read and write combined
system.mem_ctrl.rank1.actEnergy             188767320                       # Energy for activate commands per rank (pJ)
system.mem_ctrl.rank1.preEnergy             100317030                       # Energy for precharge commands per rank (pJ)
system.mem_ctrl.rank1.readEnergy            689566920                       # Energy for read commands per rank (pJ)
system.mem_ctrl.rank1.writeEnergy           501172200                       # Energy for write commands per rank (pJ)
system.mem_ctrl.rank1.refreshEnergy      1422891600.000000                       # Energy for refresh commands per rank (pJ)
system.mem_ctrl.rank1.actBackEnergy        7530344670                       # Energy for active background per rank (pJ)
system.mem_ctrl.rank1.preBackEnergy         582114240                       # Energy for precharge background per rank (pJ)
system.mem_ctrl.rank1.actPowerDownEnergy            0                       # Energy for active power-down per rank (pJ)
system.mem_ctrl.rank1.prePowerDownEnergy            0                       # Energy for precharge power-down per rank (pJ)
system.mem_ctrl.rank1.selfRefreshEnergy             0                       # Energy for self refresh per rank (pJ)
system.mem_ctrl.rank1.totalEnergy         11015173980                       # Total energy per rank (pJ)
system.mem_ctrl.rank1.averagePower         610.941441                       # Core power per rank (mW)
system.mem_ctrl.rank1.totalIdleTime                 0                       # Total Idle time Per DRAM Rank
system.mem_ctrl.rank1.memoryStateTime::IDLE   1451798250                       # Time in different power states
system.mem_ctrl.rank1.memoryStateTime::REF    601900000                       # Time in different power states
system.mem_ctrl.rank1.memoryStateTime::SREF            0                       # Time in different power states
system.mem_ctrl.rank1.memoryStateTime::PRE_PDN            0                       # Time in different power states
system.mem_ctrl.rank1.memoryStateTime::ACT  15976137750                       # Time in different power states
system.mem_ctrl.rank1.memoryStateTime::ACT_PDN            0                       # Time in different power states
system.mem_ctrl.rank0.actEnergy             188845860                       # Energy for activate commands per rank (pJ)
system.mem_ctrl.rank0.preEnergy             100347390                       # Energy for precharge commands per rank (pJ)
system.mem_ctrl.rank0.readEnergy            690316620                       # Energy for read commands per rank (pJ)
system.mem_ctrl.rank0.writeEnergy           501334020                       # Energy for write commands per rank (pJ)
system.mem_ctrl.rank0.refreshEnergy      1422891600.000000                       # Energy for refresh commands per rank (pJ)
system.mem_ctrl.rank0.actBackEnergy        7519693650                       # Energy for active background per rank (pJ)
system.mem_ctrl.rank0.preBackEnergy         591083520                       # Energy for precharge background per rank (pJ)
system.mem_ctrl.rank0.actPowerDownEnergy            0                       # Energy for active power-down per rank (pJ)
system.mem_ctrl.rank0.prePowerDownEnergy            0                       # Energy for precharge power-down per rank (pJ)
system.mem_ctrl.rank0.selfRefreshEnergy             0                       # Energy for self refresh per rank (pJ)
system.mem_ctrl.rank0.totalEnergy         11014512660                       # Total energy per rank (pJ)
system.mem_ctrl.rank0.averagePower         610.904761                       # Core power per rank (mW)
system.mem_ctrl.rank0.totalIdleTime                 0                       # Total Idle time Per DRAM Rank
system.mem_ctrl.rank0.memoryStateTime::IDLE   1475159000                       # Time in different power states
system.mem_ctrl.rank0.memoryStateTime::REF    601900000                       # Time in different power states
system.mem_ctrl.rank0.memoryStateTime::SREF            0                       # Time in different power states
system.mem_ctrl.rank0.memoryStateTime::PRE_PDN            0                       # Time in different power states
system.mem_ctrl.rank0.memoryStateTime::ACT  15952777000                       # Time in different power states
system.mem_ctrl.rank0.memoryStateTime::ACT_PDN            0                       # Time in different power states
system.mem_ctrl.power_state.pwrStateResidencyTicks::UNDEFINED  18029836000                       # Cumulative time (in ticks) in various power states
system.cache_medium.blocked_cycles::no_mshrs            0                       # number of cycles access was blocked
system.cache_medium.blocked_cycles::no_targets            0                       # number of cycles access was blocked
system.cache_medium.blocked::no_mshrs               0                       # number of cycles access was blocked
system.cache_medium.blocked::no_targets             0                       # number of cycles access was blocked
system.cache_medium.avg_blocked_cycles::no_mshrs          nan                       # average number of cycles each access was blocked
system.cache_medium.avg_blocked_cycles::no_targets          nan                       # average number of cycles each access was blocked
system.cache_medium.replacements                    0                       # number of replacements
system.cache_medium.power_state.pwrStateResidencyTicks::UNDEFINED  18029836000                       # Cumulative time (in ticks) in various power states
system.cache_medium.tags.tagsinuse                  0                       # Cycle average of tags in use
system.cache_medium.tags.total_refs                 0                       # Total number of references to valid blocks.
system.cache_medium.tags.sampled_refs               0                       # Sample count of references to valid blocks.
system.cache_medium.tags.avg_refs                 nan                       # Average number of references to valid blocks.
system.cache_medium.tags.warmup_cycle               0                       # Cycle when the warmup percentage was hit.
system.cache_medium.tags.tag_accesses               0                       # Number of tag accesses
system.cache_medium.tags.data_accesses              0                       # Number of data accesses
system.cache_medium.tags.power_state.pwrStateResidencyTicks::UNDEFINED  18029836000                       # Cumulative time (in ticks) in various power states
system.clk_domain.clock                          1000                       # Clock period in ticks
system.clk_domain.voltage_domain.voltage            1                       # Voltage in Volts
system.dcache.demand_hits::.cpu.data           206141                       # number of demand (read+write) hits
system.dcache.demand_hits::total               206141                       # number of demand (read+write) hits
system.dcache.overall_hits::.cpu.data          206143                       # number of overall hits
system.dcache.overall_hits::total              206143                       # number of overall hits
system.dcache.demand_misses::.cpu.data         192751                       # number of demand (read+write) misses
system.dcache.demand_misses::total             192751                       # number of demand (read+write) misses
system.dcache.overall_misses::.cpu.data        192751                       # number of overall misses
system.dcache.overall_misses::total            192751                       # number of overall misses
system.dcache.demand_miss_latency::.cpu.data  15063353000                       # number of demand (read+write) miss cycles
system.dcache.demand_miss_latency::total  15063353000                       # number of demand (read+write) miss cycles
system.dcache.overall_miss_latency::.cpu.data  15063353000                       # number of overall miss cycles
system.dcache.overall_miss_latency::total  15063353000                       # number of overall miss cycles
system.dcache.demand_accesses::.cpu.data       398892                       # number of demand (read+write) accesses
system.dcache.demand_accesses::total           398892                       # number of demand (read+write) accesses
system.dcache.overall_accesses::.cpu.data       398894                       # number of overall (read+write) accesses
system.dcache.overall_accesses::total          398894                       # number of overall (read+write) accesses
system.dcache.demand_miss_rate::.cpu.data     0.483216                       # miss rate for demand accesses
system.dcache.demand_miss_rate::total        0.483216                       # miss rate for demand accesses
system.dcache.overall_miss_rate::.cpu.data     0.483214                       # miss rate for overall accesses
system.dcache.overall_miss_rate::total       0.483214                       # miss rate for overall accesses
system.dcache.demand_avg_miss_latency::.cpu.data 78149.285866                       # average overall miss latency
system.dcache.demand_avg_miss_latency::total 78149.285866                       # average overall miss latency
system.dcache.overall_avg_miss_latency::.cpu.data 78149.285866                       # average overall miss latency
system.dcache.overall_avg_miss_latency::total 78149.285866                       # average overall miss latency
system.dcache.blocked_cycles::no_mshrs              0                       # number of cycles access was blocked
system.dcache.blocked_cycles::no_targets            0                       # number of cycles access was blocked
system.dcache.blocked::no_mshrs                     0                       # number of cycles access was blocked
system.dcache.blocked::no_targets                   0                       # number of cycles access was blocked
system.dcache.avg_blocked_cycles::no_mshrs          nan                       # average number of cycles each access was blocked
system.dcache.avg_blocked_cycles::no_targets          nan                       # average number of cycles each access was blocked
system.dcache.writebacks::.writebacks          192469                       # number of writebacks
system.dcache.writebacks::total                192469                       # number of writebacks
system.dcache.demand_mshr_misses::.cpu.data       192751                       # number of demand (read+write) MSHR misses
system.dcache.demand_mshr_misses::total        192751                       # number of demand (read+write) MSHR misses
system.dcache.overall_mshr_misses::.cpu.data       192751                       # number of overall MSHR misses
system.dcache.overall_mshr_misses::total       192751                       # number of overall MSHR misses
system.dcache.demand_mshr_miss_latency::.cpu.data  14677853000                       # number of demand (read+write) MSHR miss cycles
system.dcache.demand_mshr_miss_latency::total  14677853000                       # number of demand (read+write) MSHR miss cycles
system.dcache.overall_mshr_miss_latency::.cpu.data  14677853000                       # number of overall MSHR miss cycles
system.dcache.overall_mshr_miss_latency::total  14677853000                       # number of overall MSHR miss cycles
system.dcache.demand_mshr_miss_rate::.cpu.data     0.483216                       # mshr miss rate for demand accesses
system.dcache.demand_mshr_miss_rate::total     0.483216                       # mshr miss rate for demand accesses
system.dcache.overall_mshr_miss_rate::.cpu.data     0.483214                       # mshr miss rate for overall accesses
[...]
system.dcache.tags.occ_percent::total        0.726327                       # Average percentage of cache occupancy
system.dcache.tags.occ_task_id_blocks::1024          186                       # Occupied blocks per task id
system.dcache.tags.age_task_id_blocks_1024::0           16                       # Occupied blocks per task id
system.dcache.tags.age_task_id_blocks_1024::4          170                       # Occupied blocks per task id
system.dcache.tags.occ_task_id_percent::1024     0.726562                       # Percentage of cache occupancy per task id
system.dcache.tags.tag_accesses               4191642                       # Number of tag accesses
system.dcache.tags.data_accesses              4191642                       # Number of data accesses
system.dcache.tags.power_state.pwrStateResidencyTicks::UNDEFINED 129261991000                       # Cumulative time (in ticks) in various power states
system.cache_large.blocked_cycles::no_mshrs            0                       # number of cycles access was blocked
system.cache_large.blocked_cycles::no_targets            0                       # number of cycles access was blocked
system.cache_large.blocked::no_mshrs                0                       # number of cycles access was blocked
system.cache_large.blocked::no_targets              0                       # number of cycles access was blocked
system.cache_large.avg_blocked_cycles::no_mshrs          nan                       # average number of cycles each access was blocked
system.cache_large.avg_blocked_cycles::no_targets          nan                       # average number of cycles each access was blocked
system.cache_large.replacements                     0                       # number of replacements
system.cache_large.power_state.pwrStateResidencyTicks::UNDEFINED 129261991000                       # Cumulative time (in ticks) in various power states
system.cache_large.tags.tagsinuse                   0                       # Cycle average of tags in use
system.cache_large.tags.total_refs                  0                       # Total number of references to valid blocks.
system.cache_large.tags.sampled_refs                0                       # Sample count of references to valid blocks.
system.cache_large.tags.avg_refs                  nan                       # Average number of references to valid blocks.
system.cache_large.tags.warmup_cycle                0                       # Cycle when the warmup percentage was hit.
system.cache_large.tags.tag_accesses                0                       # Number of tag accesses
system.cache_large.tags.data_accesses               0                       # Number of data accesses
system.cache_large.tags.power_state.pwrStateResidencyTicks::UNDEFINED 129261991000                       # Cumulative time (in ticks) in various power states
system.l2cache.demand_hits::.cpu.inst              42                       # number of demand (read+write) hits
system.l2cache.demand_hits::.cpu.data             116                       # number of demand (read+write) hits
system.l2cache.demand_hits::total                 158                       # number of demand (read+write) hits
system.l2cache.overall_hits::.cpu.inst             42                       # number of overall hits
system.l2cache.overall_hits::.cpu.data            116                       # number of overall hits
system.l2cache.overall_hits::total                158                       # number of overall hits
system.l2cache.demand_misses::.cpu.inst           715                       # number of demand (read+write) misses
system.l2cache.demand_misses::.cpu.data       1392634                       # number of demand (read+write) misses
system.l2cache.demand_misses::total           1393349                       # number of demand (read+write) misses
system.l2cache.overall_misses::.cpu.inst          715                       # number of overall misses
system.l2cache.overall_misses::.cpu.data      1392634                       # number of overall misses
system.l2cache.overall_misses::total          1393349                       # number of overall misses
system.l2cache.demand_miss_latency::.cpu.inst     45632000                       # number of demand (read+write) miss cycles
system.l2cache.demand_miss_latency::.cpu.data 100537980000                       # number of demand (read+write) miss cycles
system.l2cache.demand_miss_latency::total 100583612000                       # number of demand (read+write) miss cycles
system.l2cache.overall_miss_latency::.cpu.inst     45632000                       # number of overall miss cycles
system.l2cache.overall_miss_latency::.cpu.data 100537980000                       # number of overall miss cycles
system.l2cache.overall_miss_latency::total 100583612000                       # number of overall miss cycles
system.l2cache.demand_accesses::.cpu.inst          757                       # number of demand (read+write) accesses
system.l2cache.demand_accesses::.cpu.data      1392750                       # number of demand (read+write) accesses
system.l2cache.demand_accesses::total         1393507                       # number of demand (read+write) accesses
system.l2cache.overall_accesses::.cpu.inst          757                       # number of overall (read+write) accesses
system.l2cache.overall_accesses::.cpu.data      1392750                       # number of overall (read+write) accesses
system.l2cache.overall_accesses::total        1393507                       # number of overall (read+write) accesses
system.l2cache.demand_miss_rate::.cpu.inst     0.944518                       # miss rate for demand accesses
system.l2cache.demand_miss_rate::.cpu.data     0.999917                       # miss rate for demand accesses
system.l2cache.demand_miss_rate::total       0.999887                       # miss rate for demand accesses
system.l2cache.overall_miss_rate::.cpu.inst     0.944518                       # miss rate for overall accesses
system.l2cache.overall_miss_rate::.cpu.data     0.999917                       # miss rate for overall accesses
system.l2cache.overall_miss_rate::total      0.999887                       # miss rate for overall accesses
system.l2cache.demand_avg_miss_latency::.cpu.inst 63820.979021                       # average overall miss latency
system.l2cache.demand_avg_miss_latency::.cpu.data 72192.679484                       # average overall miss latency
system.l2cache.demand_avg_miss_latency::total 72188.383528                       # average overall miss latency
system.l2cache.overall_avg_miss_latency::.cpu.inst 63820.979021                       # average overall miss latency
system.l2cache.overall_avg_miss_latency::.cpu.data 72192.679484                       # average overall miss latency
system.l2cache.overall_avg_miss_latency::total 72188.383528                       # average overall miss latency
system.l2cache.blocked_cycles::no_mshrs             0                       # number of cycles access was blocked
system.l2cache.blocked_cycles::no_targets            0                       # number of cycles access was blocked
system.l2cache.blocked::no_mshrs                    0                       # number of cycles access was blocked
system.l2cache.blocked::no_targets                  0                       # number of cycles access was blocked
system.l2cache.avg_blocked_cycles::no_mshrs          nan                       # average number of cycles each access was blocked
system.l2cache.avg_blocked_cycles::no_targets          nan                       # average number of cycles each access was blocked
system.l2cache.writebacks::.writebacks        1392352                       # number of writebacks
system.l2cache.writebacks::total              1392352                       # number of writebacks
system.l2cache.demand_mshr_misses::.cpu.inst          715                       # number of demand (read+write) MSHR misses
system.l2cache.demand_mshr_misses::.cpu.data      1392634                       # number of demand (read+write) MSHR misses
system.l2cache.demand_mshr_misses::total      1393349                       # number of demand (read+write) MSHR misses
system.l2cache.overall_mshr_misses::.cpu.inst          715                       # number of overall MSHR misses
system.l2cache.overall_mshr_misses::.cpu.data      1392634                       # number of overall MSHR misses
system.l2cache.overall_mshr_misses::total      1393349                       # number of overall MSHR misses
system.l2cache.demand_mshr_miss_latency::.cpu.inst     44202000                       # number of demand (read+write) MSHR miss cycles
system.l2cache.demand_mshr_miss_latency::.cpu.data  97752712000                       # number of demand (read+write) MSHR miss cycles
system.l2cache.demand_mshr_miss_latency::total  97796914000                       # number of demand (read+write) MSHR miss cycles
system.l2cache.overall_mshr_miss_latency::.cpu.inst     44202000                       # number of overall MSHR miss cycles
system.l2cache.overall_mshr_miss_latency::.cpu.data  97752712000                       # number of overall MSHR miss cycles
system.l2cache.overall_mshr_miss_latency::total  97796914000                       # number of overall MSHR miss cycles
system.l2cache.demand_mshr_miss_rate::.cpu.inst     0.944518                       # mshr miss rate for demand accesses
system.l2cache.demand_mshr_miss_rate::.cpu.data     0.999917                       # mshr miss rate for demand accesses
system.l2cache.demand_mshr_miss_rate::total     0.999887                       # mshr miss rate for demand accesses
system.l2cache.overall_mshr_miss_rate::.cpu.inst     0.944518                       # mshr miss rate for overall accesses
system.l2cache.overall_mshr_miss_rate::.cpu.data     0.999917                       # mshr miss rate for overall accesses
system.l2cache.overall_mshr_miss_rate::total     0.999887                       # mshr miss rate for overall accesses
system.l2cache.demand_avg_mshr_miss_latency::.cpu.inst 61820.979021                       # average overall mshr miss latency
system.l2cache.demand_avg_mshr_miss_latency::.cpu.data 70192.679484                       # average overall mshr miss latency
system.l2cache.demand_avg_mshr_miss_latency::total 70188.383528                       # average overall mshr miss latency
system.l2cache.overall_avg_mshr_miss_latency::.cpu.inst 61820.979021                       # average overall mshr miss latency
system.l2cache.overall_avg_mshr_miss_latency::.cpu.data 70192.679484                       # average overall mshr miss latency
system.l2cache.overall_avg_mshr_miss_latency::total 70188.383528                       # average overall mshr miss latency
system.l2cache.replacements                   1392961                       # number of replacements
system.l2cache.ReadReq_hits::.cpu.inst             42                       # number of ReadReq hits
system.l2cache.ReadReq_hits::.cpu.data            116                       # number of ReadReq hits
system.l2cache.ReadReq_hits::total                158                       # number of ReadReq hits
system.l2cache.ReadReq_misses::.cpu.inst          715                       # number of ReadReq misses
system.l2cache.ReadReq_misses::.cpu.data      1392634                       # number of ReadReq misses
system.l2cache.ReadReq_misses::total          1393349                       # number of ReadReq misses
system.l2cache.ReadReq_miss_latency::.cpu.inst     45632000                       # number of ReadReq miss cycles
system.l2cache.ReadReq_miss_latency::.cpu.data 100537980000                       # number of ReadReq miss cycles
system.l2cache.ReadReq_miss_latency::total 100583612000                       # number of ReadReq miss cycles
system.l2cache.ReadReq_accesses::.cpu.inst          757                       # number of ReadReq accesses(hits+misses)
system.l2cache.ReadReq_accesses::.cpu.data      1392750                       # number of ReadReq accesses(hits+misses)
system.l2cache.ReadReq_accesses::total        1393507                       # number of ReadReq accesses(hits+misses)
system.l2cache.ReadReq_miss_rate::.cpu.inst     0.944518                       # miss rate for ReadReq accesses
system.l2cache.ReadReq_miss_rate::.cpu.data     0.999917                       # miss rate for ReadReq accesses
system.l2cache.ReadReq_miss_rate::total      0.999887                       # miss rate for ReadReq accesses
system.l2cache.ReadReq_avg_miss_latency::.cpu.inst 63820.979021                       # average ReadReq miss latency
system.l2cache.ReadReq_avg_miss_latency::.cpu.data 72192.679484                       # average ReadReq miss latency
system.l2cache.ReadReq_avg_miss_latency::total 72188.383528                       # average ReadReq miss latency
system.l2cache.ReadReq_mshr_misses::.cpu.inst          715                       # number of ReadReq MSHR misses
system.l2cache.ReadReq_mshr_misses::.cpu.data      1392634                       # number of ReadReq MSHR misses
system.l2cache.ReadReq_mshr_misses::total      1393349                       # number of ReadReq MSHR misses
system.l2cache.ReadReq_mshr_miss_latency::.cpu.inst     44202000                       # number of ReadReq MSHR miss cycles
system.l2cache.ReadReq_mshr_miss_latency::.cpu.data  97752712000                       # number of ReadReq MSHR miss cycles
system.l2cache.ReadReq_mshr_miss_latency::total  97796914000                       # number of ReadReq MSHR miss cycles
system.l2cache.ReadReq_mshr_miss_rate::.cpu.inst     0.944518                       # mshr miss rate for ReadReq accesses
system.l2cache.ReadReq_mshr_miss_rate::.cpu.data     0.999917                       # mshr miss rate for ReadReq accesses
system.l2cache.ReadReq_mshr_miss_rate::total     0.999887                       # mshr miss rate for ReadReq accesses
system.l2cache.ReadReq_avg_mshr_miss_latency::.cpu.inst 61820.979021                       # average ReadReq mshr miss latency
system.l2cache.ReadReq_avg_mshr_miss_latency::.cpu.data 70192.679484                       # average ReadReq mshr miss latency
system.l2cache.ReadReq_avg_mshr_miss_latency::total 70188.383528                       # average ReadReq mshr miss latency
system.l2cache.WritebackDirty_hits::.writebacks      1392469                       # number of WritebackDirty hits
system.l2cache.WritebackDirty_hits::total      1392469                       # number of WritebackDirty hits
system.l2cache.WritebackDirty_accesses::.writebacks      1392469                       # number of WritebackDirty accesses(hits+misses)
system.l2cache.WritebackDirty_accesses::total      1392469                       # number of WritebackDirty accesses(hits+misses)
system.l2cache.power_state.pwrStateResidencyTicks::UNDEFINED 129261991000                       # Cumulative time (in ticks) in various power states
system.l2cache.tags.tagsinuse              442.841601                       # Cycle average of tags in use
system.l2cache.tags.total_refs                2785976                       # Total number of references to valid blocks.
system.l2cache.tags.sampled_refs              1393404                       # Sample count of references to valid blocks.
system.l2cache.tags.avg_refs                 1.999403                       # Average number of references to valid blocks.
system.l2cache.tags.warmup_cycle                78000                       # Cycle when the warmup percentage was hit.
system.l2cache.tags.occ_blocks::.writebacks    19.991713                       # Average occupied blocks per requestor
system.l2cache.tags.occ_blocks::.cpu.inst   271.887780                       # Average occupied blocks per requestor
system.l2cache.tags.occ_blocks::.cpu.data   150.962108                       # Average occupied blocks per requestor
system.l2cache.tags.occ_percent::.writebacks     0.039046                       # Average percentage of cache occupancy
system.l2cache.tags.occ_percent::.cpu.inst     0.531031                       # Average percentage of cache occupancy
system.l2cache.tags.occ_percent::.cpu.data     0.294848                       # Average percentage of cache occupancy
system.l2cache.tags.occ_percent::total       0.864925                       # Average percentage of cache occupancy
system.l2cache.tags.occ_task_id_blocks::1024          443                       # Occupied blocks per task id
system.l2cache.tags.age_task_id_blocks_1024::0           32                       # Occupied blocks per task id
system.l2cache.tags.age_task_id_blocks_1024::4          411                       # Occupied blocks per task id
system.l2cache.tags.occ_task_id_percent::1024     0.865234                       # Percentage of cache occupancy per task id
system.l2cache.tags.tag_accesses              4179380                       # Number of tag accesses
system.l2cache.tags.data_accesses             4179380                       # Number of data accesses
system.l2cache.tags.power_state.pwrStateResidencyTicks::UNDEFINED 129261991000                       # Cumulative time (in ticks) in various power states
system.l2bar.trans_dist::ReadReq              1393507                       # Transaction distribution
system.l2bar.trans_dist::ReadResp             1393507                       # Transaction distribution
system.l2bar.trans_dist::WritebackDirty       1392469                       # Transaction distribution
system.l2bar.pkt_count_system.dcache.mem_side::system.l2cache.cpu_side      4177969                       # Packet count per connected master and slave (bytes)
system.l2bar.pkt_count_system.icache.mem_side::system.l2cache.cpu_side         1514                       # Packet count per connected master and slave (bytes)
system.l2bar.pkt_count::total                 4179483                       # Packet count per connected master and slave (bytes)
system.l2bar.pkt_size_system.dcache.mem_side::system.l2cache.cpu_side    178254016                       # Cumulative packet size per connected master and slave (bytes)
system.l2bar.pkt_size_system.icache.mem_side::system.l2cache.cpu_side        48448                       # Cumulative packet size per connected master and slave (bytes)
system.l2bar.pkt_size::total                178302464                       # Cumulative packet size per connected master and slave (bytes)
system.l2bar.respLayer1.occupancy             3785000                       # Layer occupancy (ticks)
system.l2bar.respLayer1.utilization               0.0                       # Layer utilization (%)
system.l2bar.reqLayer0.occupancy           8355852000                       # Layer occupancy (ticks)
system.l2bar.reqLayer0.utilization                6.5                       # Layer utilization (%)
system.l2bar.respLayer0.occupancy          6963750000                       # Layer occupancy (ticks)
system.l2bar.respLayer0.utilization               5.4                       # Layer utilization (%)
system.l2bar.power_state.pwrStateResidencyTicks::UNDEFINED 129261991000                       # Cumulative time (in ticks) in various power states
system.cpu.dtb.walker.power_state.pwrStateResidencyTicks::UNDEFINED 129261991000                       # Cumulative time (in ticks) in various power states
system.cpu.interrupts.clk_domain.clock          16000                       # Clock period in ticks
system.cpu.itb.walker.power_state.pwrStateResidencyTicks::UNDEFINED 129261991000                       # Cumulative time (in ticks) in various power states
system.cpu.power_state.numTransitions               1                       # Number of power state transitions
system.cpu.power_state.pwrStateResidencyTicks::ON 129261991000                       # Cumulative time (in ticks) in various power states

---------- End Simulation Statistics   ----------
