
---------- Begin Simulation Statistics ----------
final_tick                                 3921388000                       # Number of ticks from beginning of simulation (restored from checkpoints and never reset)
host_inst_rate                                 110867                       # Simulator instruction rate (inst/s)
host_mem_usage                               34293824                       # Number of bytes of host memory used
host_op_rate                                   223298                       # Simulator op (including micro ops) rate (op/s)
host_seconds                                     9.05                       # Real time elapsed on the host
host_tick_rate                              433437657                       # Simulator tick rate (ticks/s)
sim_freq                                 1000000000000                       # Frequency of simulated ticks
sim_insts                                     1002999                       # Number of instructions simulated
sim_ops                                       2020199                       # Number of ops (including micro ops) simulated
sim_seconds                                  0.003921                       # Number of seconds simulated
sim_ticks                                  3921388000                       # Number of ticks simulated
system.cpu.Branches                            240618                       # Number of branches fetched
system.cpu.committedInsts                     1002999                       # Number of instructions committed
system.cpu.committedOps                       2020199                       # Number of ops (including micro ops) committed
system.cpu.dtb.rdAccesses                      178450                       # TLB accesses on read requests
system.cpu.dtb.rdMisses                           266                       # TLB misses on read requests
system.cpu.dtb.wrAccesses                      135882                       # TLB accesses on write requests
system.cpu.dtb.wrMisses                           203                       # TLB misses on write requests
system.cpu.idle_fraction                            0                       # Percentage of idle cycles
system.cpu.itb.rdAccesses                           0                       # TLB accesses on read requests
system.cpu.itb.rdMisses                             0                       # TLB misses on read requests
system.cpu.itb.wrAccesses                     1297454                       # TLB accesses on write requests
system.cpu.itb.wrMisses                           178                       # TLB misses on write requests
system.cpu.not_idle_fraction                        1                       # Percentage of non-idle cycles
system.cpu.numCycles                          3921377                       # number of cpu cycles simulated
system.cpu.numWorkItemsCompleted                    0                       # number of work items this cpu completed
system.cpu.numWorkItemsStarted                      0                       # number of work items this cpu started
system.cpu.num_busy_cycles                    3921377                       # Number of busy cycles
system.cpu.num_cc_register_reads              1579059                       # number of times the CC registers were read
system.cpu.num_cc_register_writes              732123                       # number of times the CC registers were written
system.cpu.num_conditional_control_insts       202926                       # number of instructions that are conditional controls
system.cpu.num_fp_alu_accesses                  91342                       # Number of float alu accesses
system.cpu.num_fp_insts                         91342                       # number of float instructions
system.cpu.num_fp_register_reads               145075                       # number of times the floating registers were read
system.cpu.num_fp_register_writes               65447                       # number of times the floating registers were written
system.cpu.num_func_calls                       28341                       # number of times a function call or return occured
system.cpu.num_idle_cycles                          0                       # Number of idle cycles
system.cpu.num_int_alu_accesses               1943188                       # Number of integer alu accesses
system.cpu.num_int_insts                      1943188                       # number of integer instructions
system.cpu.num_int_register_reads             3546721                       # number of times the integer registers were read
system.cpu.num_int_register_writes            1572012                       # number of times the integer registers were written
system.cpu.num_load_insts                      177584                       # Number of load instructions
system.cpu.num_mem_refs                        313448                       # number of memory refs
system.cpu.num_store_insts                     135864                       # Number of store instructions
system.cpu.num_vec_alu_accesses                     0                       # Number of vector alu accesses
system.cpu.num_vec_insts                            0                       # number of vector instructions
system.cpu.num_vec_register_reads                   0                       # number of times the vector registers were read
system.cpu.num_vec_register_writes                  0                       # number of times the vector registers were written
system.cpu.op_class::No_OpClass                 23148      1.15%      1.15% # Class of executed instruction
system.cpu.op_class::IntAlu                   1619075     80.14%     81.29% # Class of executed instruction
system.cpu.op_class::IntMult                     1189      0.06%     81.35% # Class of executed instruction
system.cpu.op_class::IntDiv                      1176      0.06%     81.40% # Class of executed instruction
system.cpu.op_class::FloatAdd                     782      0.04%     81.44% # Class of executed instruction
system.cpu.op_class::FloatCmp                       0      0.00%     81.44% # Class of executed instruction
system.cpu.op_class::FloatCvt                       0      0.00%     81.44% # Class of executed instruction
system.cpu.op_class::FloatMult                      0      0.00%     81.44% # Class of executed instruction
system.cpu.op_class::FloatMultAcc                   0      0.00%     81.44% # Class of executed instruction
system.cpu.op_class::FloatDiv                       0      0.00%     81.44% # Class of executed instruction
system.cpu.op_class::FloatMisc                      0      0.00%     81.44% # Class of executed instruction
system.cpu.op_class::FloatSqrt                      0      0.00%     81.44% # Class of executed instruction
system.cpu.op_class::SimdAdd                     1870      0.09%     81.53% # Class of executed instruction
system.cpu.op_class::SimdAddAcc                     0      0.00%     81.53% # Class of executed instruction
system.cpu.op_class::SimdAlu                    30975      1.53%     83.07% # Class of executed instruction
system.cpu.op_class::SimdCmp                       50      0.00%     83.07% # Class of executed instruction
system.cpu.op_class::SimdCvt                    12648      0.63%     83.70% # Class of executed instruction
system.cpu.op_class::SimdMisc                   15123      0.75%     84.45% # Class of executed instruction
system.cpu.op_class::SimdMult                       0      0.00%     84.45% # Class of executed instruction
system.cpu.op_class::SimdMultAcc                    0      0.00%     84.45% # Class of executed instruction
system.cpu.op_class::SimdShift                    771      0.04%     84.48% # Class of executed instruction
system.cpu.op_class::SimdShiftAcc                   0      0.00%     84.48% # Class of executed instruction
system.cpu.op_class::SimdDiv                        0      0.00%     84.48% # Class of executed instruction
system.cpu.op_class::SimdSqrt                       0      0.00%     84.48% # Class of executed instruction
system.cpu.op_class::SimdFloatAdd                   2      0.00%     84.48% # Class of executed instruction
system.cpu.op_class::SimdFloatAlu                   0      0.00%     84.48% # Class of executed instruction
system.cpu.op_class::SimdFloatCmp                   2      0.00%     84.48% # Class of executed instruction
system.cpu.op_class::SimdFloatCvt                  17      0.00%     84.48% # Class of executed instruction
system.cpu.op_class::SimdFloatDiv                   1      0.00%     84.48% # Class of executed instruction
system.cpu.op_class::SimdFloatMisc                  0      0.00%     84.48% # Class of executed instruction
system.cpu.op_class::SimdFloatMult                 12      0.00%     84.48% # Class of executed instruction
system.cpu.op_class::SimdFloatMultAcc               0      0.00%     84.48% # Class of executed instruction
system.cpu.op_class::SimdFloatSqrt                  0      0.00%     84.48% # Class of executed instruction
system.cpu.op_class::SimdReduceAdd                  0      0.00%     84.48% # Class of executed instruction
system.cpu.op_class::SimdReduceAlu                  0      0.00%     84.48% # Class of executed instruction
system.cpu.op_class::SimdReduceCmp                  0      0.00%     84.48% # Class of executed instruction
system.cpu.op_class::SimdFloatReduceAdd             0      0.00%     84.48% # Class of executed instruction
system.cpu.op_class::SimdFloatReduceCmp             0      0.00%     84.48% # Class of executed instruction
system.cpu.op_class::SimdAes                        0      0.00%     84.48% # Class of executed instruction
system.cpu.op_class::SimdAesMix                     0      0.00%     84.48% # Class of executed instruction
system.cpu.op_class::SimdSha1Hash                   0      0.00%     84.48% # Class of executed instruction
system.cpu.op_class::SimdSha1Hash2                  0      0.00%     84.48% # Class of executed instruction
system.cpu.op_class::SimdSha256Hash                 0      0.00%     84.48% # Class of executed instruction
system.cpu.op_class::SimdSha256Hash2                0      0.00%     84.48% # Class of executed instruction
system.cpu.op_class::SimdShaSigma2                  0      0.00%     84.48% # Class of executed instruction
system.cpu.op_class::SimdShaSigma3                  0      0.00%     84.48% # Class of executed instruction
system.cpu.op_class::SimdPredAlu                    0      0.00%     84.48% # Class of executed instruction
system.cpu.op_class::MemRead                   165560      8.19%     92.68% # Class of executed instruction
system.cpu.op_class::MemWrite                  120253      5.95%     98.63% # Class of executed instruction
system.cpu.op_class::FloatMemRead               12024      0.60%     99.23% # Class of executed instruction
system.cpu.op_class::FloatMemWrite              15611      0.77%    100.00% # Class of executed instruction
system.cpu.op_class::IprAccess                      0      0.00%    100.00% # Class of executed instruction
system.cpu.op_class::InstPrefetch                   0      0.00%    100.00% # Class of executed instruction
system.cpu.op_class::total                    2020289                       # Class of executed instruction
system.cpu.workload.numSyscalls                    31                       # Number of system calls
system.dynamic_cache.flushTicks                     0                       # Ticks taken to flush
system.dynamic_cache.numFlushes                     0                       # Number of Flushes Taken
system.cache_small.demand_hits::.cpu.inst         4587                       # number of demand (read+write) hits
system.cache_small.demand_hits::.cpu.data         1993                       # number of demand (read+write) hits
system.cache_small.demand_hits::total            6580                       # number of demand (read+write) hits
system.cache_small.overall_hits::.cpu.inst         4587                       # number of overall hits
system.cache_small.overall_hits::.cpu.data         1993                       # number of overall hits
system.cache_small.overall_hits::total           6580                       # number of overall hits
system.cache_small.demand_misses::.cpu.inst         1678                       # number of demand (read+write) misses
system.cache_small.demand_misses::.cpu.data         4628                       # number of demand (read+write) misses
system.cache_small.demand_misses::total          6306                       # number of demand (read+write) misses
system.cache_small.overall_misses::.cpu.inst         1678                       # number of overall misses
system.cache_small.overall_misses::.cpu.data         4628                       # number of overall misses
system.cache_small.overall_misses::total         6306                       # number of overall misses
system.cache_small.demand_miss_latency::.cpu.inst    102880000                       # number of demand (read+write) miss cycles
system.cache_small.demand_miss_latency::.cpu.data    278874000                       # number of demand (read+write) miss cycles
system.cache_small.demand_miss_latency::total    381754000                       # number of demand (read+write) miss cycles
system.cache_small.overall_miss_latency::.cpu.inst    102880000                       # number of overall miss cycles
system.cache_small.overall_miss_latency::.cpu.data    278874000                       # number of overall miss cycles
system.cache_small.overall_miss_latency::total    381754000                       # number of overall miss cycles
system.cache_small.demand_accesses::.cpu.inst         6265                       # number of demand (read+write) accesses
system.cache_small.demand_accesses::.cpu.data         6621                       # number of demand (read+write) accesses
system.cache_small.demand_accesses::total        12886                       # number of demand (read+write) accesses
system.cache_small.overall_accesses::.cpu.inst         6265                       # number of overall (read+write) accesses
system.cache_small.overall_accesses::.cpu.data         6621                       # number of overall (read+write) accesses
system.cache_small.overall_accesses::total        12886                       # number of overall (read+write) accesses
system.cache_small.demand_miss_rate::.cpu.inst     0.267837                       # miss rate for demand accesses
system.cache_small.demand_miss_rate::.cpu.data     0.698988                       # miss rate for demand accesses
system.cache_small.demand_miss_rate::total     0.489368                       # miss rate for demand accesses
system.cache_small.overall_miss_rate::.cpu.inst     0.267837                       # miss rate for overall accesses
system.cache_small.overall_miss_rate::.cpu.data     0.698988                       # miss rate for overall accesses
system.cache_small.overall_miss_rate::total     0.489368                       # miss rate for overall accesses
system.cache_small.demand_avg_miss_latency::.cpu.inst 61311.084625                       # average overall miss latency
system.cache_small.demand_avg_miss_latency::.cpu.data 60257.994814                       # average overall miss latency
system.cache_small.demand_avg_miss_latency::total 60538.217571                       # average overall miss latency
system.cache_small.overall_avg_miss_latency::.cpu.inst 61311.084625                       # average overall miss latency
system.cache_small.overall_avg_miss_latency::.cpu.data 60257.994814                       # average overall miss latency
system.cache_small.overall_avg_miss_latency::total 60538.217571                       # average overall miss latency
system.cache_small.blocked_cycles::no_mshrs            0                       # number of cycles access was blocked
system.cache_small.blocked_cycles::no_targets            0                       # number of cycles access was blocked
system.cache_small.blocked::no_mshrs                0                       # number of cycles access was blocked
system.cache_small.blocked::no_targets              0                       # number of cycles access was blocked
system.cache_small.avg_blocked_cycles::no_mshrs          nan                       # average number of cycles each access was blocked
system.cache_small.avg_blocked_cycles::no_targets          nan                       # average number of cycles each access was blocked
system.cache_small.writebacks::.writebacks          763                       # number of writebacks
system.cache_small.writebacks::total              763                       # number of writebacks
system.cache_small.demand_mshr_misses::.cpu.inst         1678                       # number of demand (read+write) MSHR misses
system.cache_small.demand_mshr_misses::.cpu.data         4628                       # number of demand (read+write) MSHR misses
system.cache_small.demand_mshr_misses::total         6306                       # number of demand (read+write) MSHR misses
system.cache_small.overall_mshr_misses::.cpu.inst         1678                       # number of overall MSHR misses
system.cache_small.overall_mshr_misses::.cpu.data         4628                       # number of overall MSHR misses
system.cache_small.overall_mshr_misses::total         6306                       # number of overall MSHR misses
system.cache_small.demand_mshr_miss_latency::.cpu.inst     99524000                       # number of demand (read+write) MSHR miss cycles
system.cache_small.demand_mshr_miss_latency::.cpu.data    269618000                       # number of demand (read+write) MSHR miss cycles
system.cache_small.demand_mshr_miss_latency::total    369142000                       # number of demand (read+write) MSHR miss cycles
system.cache_small.overall_mshr_miss_latency::.cpu.inst     99524000                       # number of overall MSHR miss cycles
system.cache_small.overall_mshr_miss_latency::.cpu.data    269618000                       # number of overall MSHR miss cycles
system.cache_small.overall_mshr_miss_latency::total    369142000                       # number of overall MSHR miss cycles
system.cache_small.demand_mshr_miss_rate::.cpu.inst     0.267837                       # mshr miss rate for demand accesses
system.cache_small.demand_mshr_miss_rate::.cpu.data     0.698988                       # mshr miss rate for demand accesses
system.cache_small.demand_mshr_miss_rate::total     0.489368                       # mshr miss rate for demand accesses
system.cache_small.overall_mshr_miss_rate::.cpu.inst     0.267837                       # mshr miss rate for overall accesses
system.cache_small.overall_mshr_miss_rate::.cpu.data     0.698988                       # mshr miss rate for overall accesses
system.cache_small.overall_mshr_miss_rate::total     0.489368                       # mshr miss rate for overall accesses
system.cache_small.demand_avg_mshr_miss_latency::.cpu.inst 59311.084625                       # average overall mshr miss latency
system.cache_small.demand_avg_mshr_miss_latency::.cpu.data 58257.994814                       # average overall mshr miss latency
system.cache_small.demand_avg_mshr_miss_latency::total 58538.217571                       # average overall mshr miss latency
system.cache_small.overall_avg_mshr_miss_latency::.cpu.inst 59311.084625                       # average overall mshr miss latency
system.cache_small.overall_avg_mshr_miss_latency::.cpu.data 58257.994814                       # average overall mshr miss latency
system.cache_small.overall_avg_mshr_miss_latency::total 58538.217571                       # average overall mshr miss latency
system.cache_small.replacements                  1655                       # number of replacements
system.cache_small.ReadReq_hits::.cpu.inst         4587                       # number of ReadReq hits
system.cache_small.ReadReq_hits::.cpu.data         1993                       # number of ReadReq hits
system.cache_small.ReadReq_hits::total           6580                       # number of ReadReq hits
system.cache_small.ReadReq_misses::.cpu.inst         1678                       # number of ReadReq misses
system.cache_small.ReadReq_misses::.cpu.data         4628                       # number of ReadReq misses
system.cache_small.ReadReq_misses::total         6306                       # number of ReadReq misses
system.cache_small.ReadReq_miss_latency::.cpu.inst    102880000                       # number of ReadReq miss cycles
system.cache_small.ReadReq_miss_latency::.cpu.data    278874000                       # number of ReadReq miss cycles
system.cache_small.ReadReq_miss_latency::total    381754000                       # number of ReadReq miss cycles
system.cache_small.ReadReq_accesses::.cpu.inst         6265                       # number of ReadReq accesses(hits+misses)
system.cache_small.ReadReq_accesses::.cpu.data         6621                       # number of ReadReq accesses(hits+misses)
system.cache_small.ReadReq_accesses::total        12886                       # number of ReadReq accesses(hits+misses)
system.cache_small.ReadReq_miss_rate::.cpu.inst     0.267837                       # miss rate for ReadReq accesses
system.cache_small.ReadReq_miss_rate::.cpu.data     0.698988                       # miss rate for ReadReq accesses
system.cache_small.ReadReq_miss_rate::total     0.489368                       # miss rate for ReadReq accesses
system.cache_small.ReadReq_avg_miss_latency::.cpu.inst 61311.084625                       # average ReadReq miss latency
system.cache_small.ReadReq_avg_miss_latency::.cpu.data 60257.994814                       # average ReadReq miss latency
system.cache_small.ReadReq_avg_miss_latency::total 60538.217571                       # average ReadReq miss latency
system.cache_small.ReadReq_mshr_misses::.cpu.inst         1678                       # number of ReadReq MSHR misses
system.cache_small.ReadReq_mshr_misses::.cpu.data         4628                       # number of ReadReq MSHR misses
system.cache_small.ReadReq_mshr_misses::total         6306                       # number of ReadReq MSHR misses
system.cache_small.ReadReq_mshr_miss_latency::.cpu.inst     99524000                       # number of ReadReq MSHR miss cycles
system.cache_small.ReadReq_mshr_miss_latency::.cpu.data    269618000                       # number of ReadReq MSHR miss cycles
system.cache_small.ReadReq_mshr_miss_latency::total    369142000                       # number of ReadReq MSHR miss cycles
system.cache_small.ReadReq_mshr_miss_rate::.cpu.inst     0.267837                       # mshr miss rate for ReadReq accesses
system.cache_small.ReadReq_mshr_miss_rate::.cpu.data     0.698988                       # mshr miss rate for ReadReq accesses
system.cache_small.ReadReq_mshr_miss_rate::total     0.489368                       # mshr miss rate for ReadReq accesses
system.cache_small.ReadReq_avg_mshr_miss_latency::.cpu.inst 59311.084625                       # average ReadReq mshr miss latency
system.cache_small.ReadReq_avg_mshr_miss_latency::.cpu.data 58257.994814                       # average ReadReq mshr miss latency
system.cache_small.ReadReq_avg_mshr_miss_latency::total 58538.217571                       # average ReadReq mshr miss latency
system.cache_small.WritebackDirty_hits::.writebacks         4606                       # number of WritebackDirty hits
system.cache_small.WritebackDirty_hits::total         4606                       # number of WritebackDirty hits
system.cache_small.WritebackDirty_accesses::.writebacks         4606                       # number of WritebackDirty accesses(hits+misses)
system.cache_small.WritebackDirty_accesses::total         4606                       # number of WritebackDirty accesses(hits+misses)
system.cache_small.power_state.pwrStateResidencyTicks::UNDEFINED   3921388000                       # Cumulative time (in ticks) in various power states
system.cache_small.tags.tagsinuse         3593.510572                       # Cycle average of tags in use
system.cache_small.tags.total_refs               3520                       # Total number of references to valid blocks.
system.cache_small.tags.sampled_refs             1655                       # Sample count of references to valid blocks.
system.cache_small.tags.avg_refs             2.126888                       # Average number of references to valid blocks.
system.cache_small.tags.warmup_cycle            76000                       # Cycle when the warmup percentage was hit.
system.cache_small.tags.occ_blocks::.writebacks    34.407996                       # Average occupied blocks per requestor
system.cache_small.tags.occ_blocks::.cpu.inst   818.278507                       # Average occupied blocks per requestor
system.cache_small.tags.occ_blocks::.cpu.data  2740.824069                       # Average occupied blocks per requestor
system.cache_small.tags.occ_percent::.writebacks     0.004200                       # Average percentage of cache occupancy
system.cache_small.tags.occ_percent::.cpu.inst     0.099888                       # Average percentage of cache occupancy
system.cache_small.tags.occ_percent::.cpu.data     0.334573                       # Average percentage of cache occupancy
system.cache_small.tags.occ_percent::total     0.438661                       # Average percentage of cache occupancy
system.cache_small.tags.occ_task_id_blocks::1024         4773                       # Occupied blocks per task id
system.cache_small.tags.age_task_id_blocks_1024::2          231                       # Occupied blocks per task id
system.cache_small.tags.age_task_id_blocks_1024::3         4542                       # Occupied blocks per task id
system.cache_small.tags.occ_task_id_percent::1024     0.582642                       # Percentage of cache occupancy per task id
system.cache_small.tags.tag_accesses            23920                       # Number of tag accesses
system.cache_small.tags.data_accesses           23920                       # Number of data accesses
system.cache_small.tags.power_state.pwrStateResidencyTicks::UNDEFINED   3921388000                       # Cumulative time (in ticks) in various power states
system.icache.demand_hits::.cpu.inst          1287143                       # number of demand (read+write) hits
system.icache.demand_hits::total              1287143                       # number of demand (read+write) hits
system.icache.overall_hits::.cpu.inst         1287143                       # number of overall hits
system.icache.overall_hits::total             1287143                       # number of overall hits
system.icache.demand_misses::.cpu.inst          10311                       # number of demand (read+write) misses
system.icache.demand_misses::total              10311                       # number of demand (read+write) misses
system.icache.overall_misses::.cpu.inst         10311                       # number of overall misses
system.icache.overall_misses::total             10311                       # number of overall misses
system.icache.demand_miss_latency::.cpu.inst    279462000                       # number of demand (read+write) miss cycles
system.icache.demand_miss_latency::total    279462000                       # number of demand (read+write) miss cycles
system.icache.overall_miss_latency::.cpu.inst    279462000                       # number of overall miss cycles
system.icache.overall_miss_latency::total    279462000                       # number of overall miss cycles
system.icache.demand_accesses::.cpu.inst      1297454                       # number of demand (read+write) accesses
system.icache.demand_accesses::total          1297454                       # number of demand (read+write) accesses
system.icache.overall_accesses::.cpu.inst      1297454                       # number of overall (read+write) accesses
system.icache.overall_accesses::total         1297454                       # number of overall (read+write) accesses
system.icache.demand_miss_rate::.cpu.inst     0.007947                       # miss rate for demand accesses
system.icache.demand_miss_rate::total        0.007947                       # miss rate for demand accesses
system.icache.overall_miss_rate::.cpu.inst     0.007947                       # miss rate for overall accesses
system.icache.overall_miss_rate::total       0.007947                       # miss rate for overall accesses
system.icache.demand_avg_miss_latency::.cpu.inst 27103.287751                       # average overall miss latency
system.icache.demand_avg_miss_latency::total 27103.287751                       # average overall miss latency
system.icache.overall_avg_miss_latency::.cpu.inst 27103.287751                       # average overall miss latency
system.icache.overall_avg_miss_latency::total 27103.287751                       # average overall miss latency
system.icache.blocked_cycles::no_mshrs              0                       # number of cycles access was blocked
system.icache.blocked_cycles::no_targets            0                       # number of cycles access was blocked
system.icache.blocked::no_mshrs                     0                       # number of cycles access was blocked
system.icache.blocked::no_targets                   0                       # number of cycles access was blocked
system.icache.avg_blocked_cycles::no_mshrs          nan                       # average number of cycles each access was blocked
system.icache.avg_blocked_cycles::no_targets          nan                       # average number of cycles each access was blocked
system.icache.demand_mshr_misses::.cpu.inst        10311                       # number of demand (read+write) MSHR misses
system.icache.demand_mshr_misses::total         10311                       # number of demand (read+write) MSHR misses
system.icache.overall_mshr_misses::.cpu.inst        10311                       # number of overall MSHR misses
system.icache.overall_mshr_misses::total        10311                       # number of overall MSHR misses
system.icache.demand_mshr_miss_latency::.cpu.inst    258840000                       # number of demand (read+write) MSHR miss cycles
system.icache.demand_mshr_miss_latency::total    258840000                       # number of demand (read+write) MSHR miss cycles
system.icache.overall_mshr_miss_latency::.cpu.inst    258840000                       # number of overall MSHR miss cycles
system.icache.overall_mshr_miss_latency::total    258840000                       # number of overall MSHR miss cycles
system.icache.demand_mshr_miss_rate::.cpu.inst     0.007947                       # mshr miss rate for demand accesses
system.icache.demand_mshr_miss_rate::total     0.007947                       # mshr miss rate for demand accesses
system.icache.overall_mshr_miss_rate::.cpu.inst     0.007947                       # mshr miss rate for overall accesses
system.icache.overall_mshr_miss_rate::total     0.007947                       # mshr miss rate for overall accesses
system.icache.demand_avg_mshr_miss_latency::.cpu.inst 25103.287751                       # average overall mshr miss latency
system.icache.demand_avg_mshr_miss_latency::total 25103.287751                       # average overall mshr miss latency
system.icache.overall_avg_mshr_miss_latency::.cpu.inst 25103.287751                       # average overall mshr miss latency
system.icache.overall_avg_mshr_miss_latency::total 25103.287751                       # average overall mshr miss latency
system.icache.replacements                      10055                       # number of replacements
system.icache.ReadReq_hits::.cpu.inst         1287143                       # number of ReadReq hits
system.icache.ReadReq_hits::total             1287143                       # number of ReadReq hits
system.icache.ReadReq_misses::.cpu.inst         10311                       # number of ReadReq misses
system.icache.ReadReq_misses::total             10311                       # number of ReadReq misses
system.icache.ReadReq_miss_latency::.cpu.inst    279462000                       # number of ReadReq miss cycles
system.icache.ReadReq_miss_latency::total    279462000                       # number of ReadReq miss cycles
system.icache.ReadReq_accesses::.cpu.inst      1297454                       # number of ReadReq accesses(hits+misses)
system.icache.ReadReq_accesses::total         1297454                       # number of ReadReq accesses(hits+misses)
system.icache.ReadReq_miss_rate::.cpu.inst     0.007947                       # miss rate for ReadReq accesses
system.icache.ReadReq_miss_rate::total       0.007947                       # miss rate for ReadReq accesses
system.icache.ReadReq_avg_miss_latency::.cpu.inst 27103.287751                       # average ReadReq miss latency
system.icache.ReadReq_avg_miss_latency::total 27103.287751                       # average ReadReq miss latency
system.icache.ReadReq_mshr_misses::.cpu.inst        10311                       # number of ReadReq MSHR misses
system.icache.ReadReq_mshr_misses::total        10311                       # number of ReadReq MSHR misses
system.icache.ReadReq_mshr_miss_latency::.cpu.inst    258840000                       # number of ReadReq MSHR miss cycles
system.icache.ReadReq_mshr_miss_latency::total    258840000                       # number of ReadReq MSHR miss cycles
system.icache.ReadReq_mshr_miss_rate::.cpu.inst     0.007947                       # mshr miss rate for ReadReq accesses
system.icache.ReadReq_mshr_miss_rate::total     0.007947                       # mshr miss rate for ReadReq accesses
system.icache.ReadReq_avg_mshr_miss_latency::.cpu.inst 25103.287751                       # average ReadReq mshr miss latency
system.icache.ReadReq_avg_mshr_miss_latency::total 25103.287751                       # average ReadReq mshr miss latency
system.icache.power_state.pwrStateResidencyTicks::UNDEFINED   3921388000                       # Cumulative time (in ticks) in various power states
system.icache.tags.tagsinuse               244.753018                       # Cycle average of tags in use
system.icache.tags.total_refs                  815513                       # Total number of references to valid blocks.
system.icache.tags.sampled_refs                 10055                       # Sample count of references to valid blocks.
system.icache.tags.avg_refs                 81.105221                       # Average number of references to valid blocks.
system.icache.tags.warmup_cycle                 82000                       # Cycle when the warmup percentage was hit.
system.icache.tags.occ_blocks::.cpu.inst   244.753018                       # Average occupied blocks per requestor
system.icache.tags.occ_percent::.cpu.inst     0.956066                       # Average percentage of cache occupancy
system.icache.tags.occ_percent::total        0.956066                       # Average percentage of cache occupancy
system.icache.tags.occ_task_id_blocks::1024          256                       # Occupied blocks per task id
system.icache.tags.age_task_id_blocks_1024::2           57                       # Occupied blocks per task id
system.icache.tags.age_task_id_blocks_1024::3          199                       # Occupied blocks per task id
system.icache.tags.occ_task_id_percent::1024            1                       # Percentage of cache occupancy per task id
system.icache.tags.tag_accesses               1307765                       # Number of tag accesses
system.icache.tags.data_accesses              1307765                       # Number of data accesses
system.icache.tags.power_state.pwrStateResidencyTicks::UNDEFINED   3921388000                       # Cumulative time (in ticks) in various power states
system.membus.trans_dist::ReadReq                6306                       # Transaction distribution
system.membus.trans_dist::ReadResp               6306                       # Transaction distribution
system.membus.trans_dist::WritebackDirty          763                       # Transaction distribution
system.membus.pkt_count_system.cache_small.mem_side::system.mem_ctrl.port        13375                       # Packet count per connected master and slave (bytes)
system.membus.pkt_count_system.cache_small.mem_side::total        13375                       # Packet count per connected master and slave (bytes)
system.membus.pkt_count::total                  13375                       # Packet count per connected master and slave (bytes)
system.membus.pkt_size_system.cache_small.mem_side::system.mem_ctrl.port       452416                       # Cumulative packet size per connected master and slave (bytes)
system.membus.pkt_size_system.cache_small.mem_side::total       452416                       # Cumulative packet size per connected master and slave (bytes)
system.membus.pkt_size::total                  452416                       # Cumulative packet size per connected master and slave (bytes)
system.membus.reqLayer2.occupancy            10121000                       # Layer occupancy (ticks)
system.membus.reqLayer2.utilization               0.3                       # Layer utilization (%)
system.membus.respLayer1.occupancy           33596750                       # Layer occupancy (ticks)
system.membus.respLayer1.utilization              0.9                       # Layer utilization (%)
system.membus.power_state.pwrStateResidencyTicks::UNDEFINED   3921388000                       # Cumulative time (in ticks) in various power states
system.mem_ctrl.bytes_read::.cpu.inst          107392                       # Number of bytes read from this memory
system.mem_ctrl.bytes_read::.cpu.data          296192                       # Number of bytes read from this memory
system.mem_ctrl.bytes_read::total              403584                       # Number of bytes read from this memory
system.mem_ctrl.bytes_inst_read::.cpu.inst       107392                       # Number of instructions bytes read from this memory
system.mem_ctrl.bytes_inst_read::total         107392                       # Number of instructions bytes read from this memory
system.mem_ctrl.bytes_written::.writebacks        48832                       # Number of bytes written to this memory
system.mem_ctrl.bytes_written::total            48832                       # Number of bytes written to this memory
system.mem_ctrl.num_reads::.cpu.inst             1678                       # Number of read requests responded to by this memory
system.mem_ctrl.num_reads::.cpu.data             4628                       # Number of read requests responded to by this memory
system.mem_ctrl.num_reads::total                 6306                       # Number of read requests responded to by this memory
system.mem_ctrl.num_writes::.writebacks           763                       # Number of write requests responded to by this memory
system.mem_ctrl.num_writes::total                 763                       # Number of write requests responded to by this memory
system.mem_ctrl.bw_read::.cpu.inst           27386221                       # Total read bandwidth from this memory (bytes/s)
system.mem_ctrl.bw_read::.cpu.data           75532439                       # Total read bandwidth from this memory (bytes/s)
system.mem_ctrl.bw_read::total              102918660                       # Total read bandwidth from this memory (bytes/s)
system.mem_ctrl.bw_inst_read::.cpu.inst      27386221                       # Instruction read bandwidth from this memory (bytes/s)
system.mem_ctrl.bw_inst_read::total          27386221                       # Instruction read bandwidth from this memory (bytes/s)
system.mem_ctrl.bw_write::.writebacks        12452734                       # Write bandwidth from this memory (bytes/s)
system.mem_ctrl.bw_write::total              12452734                       # Write bandwidth from this memory (bytes/s)
system.mem_ctrl.bw_total::.writebacks        12452734                       # Total bandwidth to/from this memory (bytes/s)
system.mem_ctrl.bw_total::.cpu.inst          27386221                       # Total bandwidth to/from this memory (bytes/s)
system.mem_ctrl.bw_total::.cpu.data          75532439                       # Total bandwidth to/from this memory (bytes/s)
system.mem_ctrl.bw_total::total             115371394                       # Total bandwidth to/from this memory (bytes/s)
system.mem_ctrl.avgPriority_.writebacks::samples       762.00                       # Average QoS priority value for accepted requests
system.mem_ctrl.avgPriority_.cpu.inst::samples      1678.00                       # Average QoS priority value for accepted requests
system.mem_ctrl.avgPriority_.cpu.data::samples      4604.00                       # Average QoS priority value for accepted requests
system.mem_ctrl.priorityMinLatency       0.000000018750                       # per QoS priority minimum request to response latency (s)
system.mem_ctrl.priorityMaxLatency       0.003213298500                       # per QoS priority maximum request to response latency (s)
system.mem_ctrl.numReadWriteTurnArounds            44                       # Number of turnarounds from READ to WRITE
system.mem_ctrl.numWriteReadTurnArounds            44                       # Number of turnarounds from WRITE to READ
system.mem_ctrl.numStayReadState                14296                       # Number of times bus staying in READ state
system.mem_ctrl.numStayWriteState                 696                       # Number of times bus staying in WRITE state
system.mem_ctrl.readReqs                         6306                       # Number of read requests accepted
system.mem_ctrl.writeReqs                         763                       # Number of write requests accepted
system.mem_ctrl.readBursts                       6306                       # Number of DRAM read bursts, including those serviced by the write queue
system.mem_ctrl.writeBursts                       763                       # Number of DRAM write bursts, including those merged in the write queue
system.mem_ctrl.servicedByWrQ                      24                       # Number of DRAM read bursts serviced by the write queue
system.mem_ctrl.mergedWrBursts                      1                       # Number of DRAM write bursts merged with an existing one
system.mem_ctrl.neitherReadNorWriteReqs             0                       # Number of requests that are neither read nor write
system.mem_ctrl.perBankRdBursts::0                523                       # Per bank write bursts
system.mem_ctrl.perBankRdBursts::1                264                       # Per bank write bursts
system.mem_ctrl.perBankRdBursts::2                236                       # Per bank write bursts
system.mem_ctrl.perBankRdBursts::3                336                       # Per bank write bursts
system.mem_ctrl.perBankRdBursts::4                567                       # Per bank write bursts
system.mem_ctrl.perBankRdBursts::5                355                       # Per bank write bursts
system.mem_ctrl.perBankRdBursts::6                273                       # Per bank write bursts
system.mem_ctrl.perBankRdBursts::7                346                       # Per bank write bursts
system.mem_ctrl.perBankRdBursts::8                441                       # Per bank write bursts
system.mem_ctrl.perBankRdBursts::9                330                       # Per bank write bursts
system.mem_ctrl.perBankRdBursts::10               371                       # Per bank write bursts
system.mem_ctrl.perBankRdBursts::11               332                       # Per bank write bursts
system.mem_ctrl.perBankRdBursts::12               328                       # Per bank write bursts
system.mem_ctrl.perBankRdBursts::13               412                       # Per bank write bursts
system.mem_ctrl.perBankRdBursts::14               619                       # Per bank write bursts
system.mem_ctrl.perBankRdBursts::15               549                       # Per bank write bursts
system.mem_ctrl.perBankWrBursts::0                 69                       # Per bank write bursts
system.mem_ctrl.perBankWrBursts::1                 12                       # Per bank write bursts
system.mem_ctrl.perBankWrBursts::2                  3                       # Per bank write bursts
system.mem_ctrl.perBankWrBursts::3                  9                       # Per bank write bursts
system.mem_ctrl.perBankWrBursts::4                114                       # Per bank write bursts
system.mem_ctrl.perBankWrBursts::5                 10                       # Per bank write bursts
system.mem_ctrl.perBankWrBursts::6                  3                       # Per bank write bursts
system.mem_ctrl.perBankWrBursts::7                 23                       # Per bank write bursts
system.mem_ctrl.perBankWrBursts::8                 87                       # Per bank write bursts
system.mem_ctrl.perBankWrBursts::9                 31                       # Per bank write bursts
system.mem_ctrl.perBankWrBursts::10                32                       # Per bank write bursts
system.mem_ctrl.perBankWrBursts::11                 2                       # Per bank write bursts
system.mem_ctrl.perBankWrBursts::12                25                       # Per bank write bursts
system.mem_ctrl.perBankWrBursts::13               106                       # Per bank write bursts
system.mem_ctrl.perBankWrBursts::14               121                       # Per bank write bursts
system.mem_ctrl.perBankWrBursts::15                91                       # Per bank write bursts
system.mem_ctrl.avgRdQLen                        1.00                       # Average read queue length when enqueuing
system.mem_ctrl.avgWrQLen                       23.16                       # Average write queue length when enqueuing
system.mem_ctrl.totQLat                      54035250                       # Total ticks spent queuing
system.mem_ctrl.totBusLat                    31410000                       # Total ticks spent in databus transfers
system.mem_ctrl.totMemAccLat                171822750                       # Total ticks spent from burst creation until serviced by the DRAM
system.mem_ctrl.avgQLat                       8601.60                       # Average queueing delay per DRAM burst
system.mem_ctrl.avgBusLat                     5000.00                       # Average bus latency per DRAM burst
system.mem_ctrl.avgMemAccLat                 27351.60                       # Average memory access latency per DRAM burst
system.mem_ctrl.numRdRetry                          0                       # Number of times read queue was full causing retry
system.mem_ctrl.numWrRetry                          0                       # Number of times write queue was full causing retry
system.mem_ctrl.readRowHits                      4588                       # Number of row buffer hits during reads
system.mem_ctrl.writeRowHits                      568                       # Number of row buffer hits during writes
system.mem_ctrl.readRowHitRate                  73.03                       # Row buffer hit rate for reads
system.mem_ctrl.writeRowHitRate                 74.54                       # Row buffer hit rate for writes
system.mem_ctrl.readPktSize::0                      0                       # Read request sizes (log2)
system.mem_ctrl.readPktSize::1                      0                       # Read request sizes (log2)
system.mem_ctrl.readPktSize::2                      0                       # Read request sizes (log2)
system.mem_ctrl.readPktSize::3                      0                       # Read request sizes (log2)
system.mem_ctrl.readPktSize::4                      0                       # Read request sizes (log2)
system.mem_ctrl.readPktSize::5                      0                       # Read request sizes (log2)
system.mem_ctrl.readPktSize::6                   6306                       # Read request sizes (log2)
system.mem_ctrl.writePktSize::0                     0                       # Write request sizes (log2)
system.mem_ctrl.writePktSize::1                     0                       # Write request sizes (log2)
system.mem_ctrl.writePktSize::2                     0                       # Write request sizes (log2)
system.mem_ctrl.writePktSize::3                     0                       # Write request sizes (log2)
system.mem_ctrl.writePktSize::4                     0                       # Write request sizes (log2)
system.mem_ctrl.writePktSize::5                     0                       # Write request sizes (log2)
system.mem_ctrl.writePktSize::6                   763                       # Write request sizes (log2)
system.mem_ctrl.rdQLenPdf::0                     6273                       # What read queue length does an incoming req see
system.mem_ctrl.rdQLenPdf::1                        9                       # What read queue length does an incoming req see
system.mem_ctrl.rdQLenPdf::2                        0                       # What read queue length does an incoming req see
system.mem_ctrl.rdQLenPdf::3                        0                       # What read queue length does an incoming req see
system.mem_ctrl.rdQLenPdf::4                        0                       # What read queue length does an incoming req see
system.mem_ctrl.rdQLenPdf::5                        0                       # What read queue length does an incoming req see
system.mem_ctrl.rdQLenPdf::6                        0                       # What read queue length does an incoming req see
system.mem_ctrl.rdQLenPdf::7                        0                       # What read queue length does an incoming req see
system.mem_ctrl.rdQLenPdf::8                        0                       # What read queue length does an incoming req see
system.mem_ctrl.rdQLenPdf::9                        0                       # What read queue length does an incoming req see
system.mem_ctrl.rdQLenPdf::10                       0                       # What read queue length does an incoming req see
system.mem_ctrl.rdQLenPdf::11                       0                       # What read queue length does an incoming req see
system.mem_ctrl.rdQLenPdf::12                       0                       # What read queue length does an incoming req see
system.mem_ctrl.rdQLenPdf::13                       0                       # What read queue length does an incoming req see
system.mem_ctrl.rdQLenPdf::14                       0                       # What read queue length does an incoming req see
system.mem_ctrl.rdQLenPdf::15                       0                       # What read queue length does an incoming req see
system.mem_ctrl.rdQLenPdf::16                       0                       # What read queue length does an incoming req see
system.mem_ctrl.rdQLenPdf::17                       0                       # What read queue length does an incoming req see
system.mem_ctrl.rdQLenPdf::18                       0                       # What read queue length does an incoming req see
system.mem_ctrl.rdQLenPdf::19                       0                       # What read queue length does an incoming req see
system.mem_ctrl.rdQLenPdf::20                       0                       # What read queue length does an incoming req see
system.mem_ctrl.rdQLenPdf::21                       0                       # What read queue length does an incoming req see
system.mem_ctrl.rdQLenPdf::22                       0                       # What read queue length does an incoming req see
system.mem_ctrl.rdQLenPdf::23                       0                       # What read queue length does an incoming req see
system.mem_ctrl.rdQLenPdf::24                       0                       # What read queue length does an incoming req see
system.mem_ctrl.rdQLenPdf::25                       0                       # What read queue length does an incoming req see
system.mem_ctrl.rdQLenPdf::26                       0                       # What read queue length does an incoming req see
system.mem_ctrl.rdQLenPdf::27                       0                       # What read queue length does an incoming req see
system.mem_ctrl.rdQLenPdf::28                       0                       # What read queue length does an incoming req see
system.mem_ctrl.rdQLenPdf::29                       0                       # What read queue length does an incoming req see
system.mem_ctrl.rdQLenPdf::30                       0                       # What read queue length does an incoming req see
system.mem_ctrl.rdQLenPdf::31                       0                       # What read queue length does an incoming req see
system.mem_ctrl.wrQLenPdf::0                        1                       # What write queue length does an incoming req see
system.mem_ctrl.wrQLenPdf::1                        1                       # What write queue length does an incoming req see
system.mem_ctrl.wrQLenPdf::2                        1                       # What write queue length does an incoming req see
system.mem_ctrl.wrQLenPdf::3                        1                       # What write queue length does an incoming req see
system.mem_ctrl.wrQLenPdf::4                        1                       # What write queue length does an incoming req see
system.mem_ctrl.wrQLenPdf::5                        1                       # What write queue length does an incoming req see
system.mem_ctrl.wrQLenPdf::6                        1                       # What write queue length does an incoming req see
system.mem_ctrl.wrQLenPdf::7                        1                       # What write queue length does an incoming req see
system.mem_ctrl.wrQLenPdf::8                        1                       # What write queue length does an incoming req see
system.mem_ctrl.wrQLenPdf::9                        1                       # What write queue length does an incoming req see
system.mem_ctrl.wrQLenPdf::10                       1                       # What write queue length does an incoming req see
system.mem_ctrl.wrQLenPdf::11                       1                       # What write queue length does an incoming req see
system.mem_ctrl.wrQLenPdf::12                       1                       # What write queue length does an incoming req see
system.mem_ctrl.wrQLenPdf::13                       1                       # What write queue length does an incoming req see
system.mem_ctrl.wrQLenPdf::14                       1                       # What write queue length does an incoming req see
system.mem_ctrl.wrQLenPdf::15                      18                       # What write queue length does an incoming req see
system.mem_ctrl.wrQLenPdf::16                      18                       # What write queue length does an incoming req see
system.mem_ctrl.wrQLenPdf::17                      45                       # What write queue length does an incoming req see
system.mem_ctrl.wrQLenPdf::18                      45                       # What write queue length does an incoming req see
system.mem_ctrl.wrQLenPdf::19                      45                       # What write queue length does an incoming req see
system.mem_ctrl.wrQLenPdf::20                      45                       # What write queue length does an incoming req see
system.mem_ctrl.wrQLenPdf::21                      45                       # What write queue length does an incoming req see
system.mem_ctrl.wrQLenPdf::22                      45                       # What write queue length does an incoming req see
system.mem_ctrl.wrQLenPdf::23                      45                       # What write queue length does an incoming req see
system.mem_ctrl.wrQLenPdf::24                      44                       # What write queue length does an incoming req see
system.mem_ctrl.wrQLenPdf::25                      44                       # What write queue length does an incoming req see
system.mem_ctrl.wrQLenPdf::26                      44                       # What write queue length does an incoming req see
system.mem_ctrl.wrQLenPdf::27                      44                       # What write queue length does an incoming req see
system.mem_ctrl.wrQLenPdf::28                      44                       # What write queue length does an incoming req see
system.mem_ctrl.wrQLenPdf::29                      44                       # What write queue length does an incoming req see
system.mem_ctrl.wrQLenPdf::30                      44                       # What write queue length does an incoming req see
system.mem_ctrl.wrQLenPdf::31                      44                       # What write queue length does an incoming req see
system.mem_ctrl.wrQLenPdf::32                      44                       # What write queue length does an incoming req see
system.mem_ctrl.wrQLenPdf::33                       0                       # What write queue length does an incoming req see
system.mem_ctrl.wrQLenPdf::34                       0                       # What write queue length does an incoming req see
system.mem_ctrl.wrQLenPdf::35                       0                       # What write queue length does an incoming req see
system.mem_ctrl.wrQLenPdf::36                       0                       # What write queue length does an incoming req see
system.mem_ctrl.wrQLenPdf::37                       0                       # What write queue length does an incoming req see
system.mem_ctrl.wrQLenPdf::38                       0                       # What write queue length does an incoming req see
system.mem_ctrl.wrQLenPdf::39                       0                       # What write queue length does an incoming req see
system.mem_ctrl.wrQLenPdf::40                       0                       # What write queue length does an incoming req see
system.mem_ctrl.wrQLenPdf::41                       0                       # What write queue length does an incoming req see
system.mem_ctrl.wrQLenPdf::42                       0                       # What write queue length does an incoming req see
system.mem_ctrl.wrQLenPdf::43                       0                       # What write queue length does an incoming req see
system.mem_ctrl.wrQLenPdf::44                       0                       # What write queue length does an incoming req see
system.mem_ctrl.wrQLenPdf::45                       0                       # What write queue length does an incoming req see
system.mem_ctrl.wrQLenPdf::46                       0                       # What write queue length does an incoming req see
system.mem_ctrl.wrQLenPdf::47                       0                       # What write queue length does an incoming req see
system.mem_ctrl.wrQLenPdf::48                       0                       # What write queue length does an incoming req see
system.mem_ctrl.wrQLenPdf::49                       0                       # What write queue length does an incoming req see
system.mem_ctrl.wrQLenPdf::50                       0                       # What write queue length does an incoming req see
system.mem_ctrl.wrQLenPdf::51                       0                       # What write queue length does an incoming req see
system.mem_ctrl.wrQLenPdf::52                       0                       # What write queue length does an incoming req see
system.mem_ctrl.wrQLenPdf::53                       0                       # What write queue length does an incoming req see
system.mem_ctrl.wrQLenPdf::54                       0                       # What write queue length does an incoming req see
system.mem_ctrl.wrQLenPdf::55                       0                       # What write queue length does an incoming req see
system.mem_ctrl.wrQLenPdf::56                       0                       # What write queue length does an incoming req see
system.mem_ctrl.wrQLenPdf::57                       0                       # What write queue length does an incoming req see
system.mem_ctrl.wrQLenPdf::58                       0                       # What write queue length does an incoming req see
system.mem_ctrl.wrQLenPdf::59                       0                       # What write queue length does an incoming req see
system.mem_ctrl.wrQLenPdf::60                       0                       # What write queue length does an incoming req see
system.mem_ctrl.wrQLenPdf::61                       0                       # What write queue length does an incoming req see
system.mem_ctrl.wrQLenPdf::62                       0                       # What write queue length does an incoming req see
system.mem_ctrl.wrQLenPdf::63                       0                       # What write queue length does an incoming req see
system.mem_ctrl.bytesPerActivate::samples         1864                       # Bytes accessed per row activation
system.mem_ctrl.bytesPerActivate::mean     241.030043                       # Bytes accessed per row activation
system.mem_ctrl.bytesPerActivate::gmean    147.001548                       # Bytes accessed per row activation
system.mem_ctrl.bytesPerActivate::stdev    281.030790                       # Bytes accessed per row activation
system.mem_ctrl.bytesPerActivate::0-127           824     44.21%     44.21% # Bytes accessed per row activation
system.mem_ctrl.bytesPerActivate::128-255          490     26.29%     70.49% # Bytes accessed per row activation
system.mem_ctrl.bytesPerActivate::256-383          181      9.71%     80.20% # Bytes accessed per row activation
system.mem_ctrl.bytesPerActivate::384-511           97      5.20%     85.41% # Bytes accessed per row activation
system.mem_ctrl.bytesPerActivate::512-639           55      2.95%     88.36% # Bytes accessed per row activation
system.mem_ctrl.bytesPerActivate::640-767           26      1.39%     89.75% # Bytes accessed per row activation
system.mem_ctrl.bytesPerActivate::768-895           32      1.72%     91.47% # Bytes accessed per row activation
system.mem_ctrl.bytesPerActivate::896-1023           25      1.34%     92.81% # Bytes accessed per row activation
system.mem_ctrl.bytesPerActivate::1024-1151          134      7.19%    100.00% # Bytes accessed per row activation
system.mem_ctrl.bytesPerActivate::total          1864                       # Bytes accessed per row activation
system.mem_ctrl.rdPerTurnAround::samples           44                       # Reads before turning the bus around for writes
system.mem_ctrl.rdPerTurnAround::mean      139.250000                       # Reads before turning the bus around for writes
system.mem_ctrl.rdPerTurnAround::gmean      69.738428                       # Reads before turning the bus around for writes
system.mem_ctrl.rdPerTurnAround::stdev     245.018284                       # Reads before turning the bus around for writes
system.mem_ctrl.rdPerTurnAround::0-63              22     50.00%     50.00% # Reads before turning the bus around for writes
system.mem_ctrl.rdPerTurnAround::64-127            10     22.73%     72.73% # Reads before turning the bus around for writes
system.mem_ctrl.rdPerTurnAround::128-191            3      6.82%     79.55% # Reads before turning the bus around for writes
system.mem_ctrl.rdPerTurnAround::192-255            4      9.09%     88.64% # Reads before turning the bus around for writes
system.mem_ctrl.rdPerTurnAround::256-319            1      2.27%     90.91% # Reads before turning the bus around for writes
system.mem_ctrl.rdPerTurnAround::384-447            1      2.27%     93.18% # Reads before turning the bus around for writes
system.mem_ctrl.rdPerTurnAround::448-511            1      2.27%     95.45% # Reads before turning the bus around for writes
system.mem_ctrl.rdPerTurnAround::576-639            1      2.27%     97.73% # Reads before turning the bus around for writes
system.mem_ctrl.rdPerTurnAround::1472-1535            1      2.27%    100.00% # Reads before turning the bus around for writes
system.mem_ctrl.rdPerTurnAround::total             44                       # Reads before turning the bus around for writes
system.mem_ctrl.wrPerTurnAround::samples           44                       # Writes before turning the bus around for reads
system.mem_ctrl.wrPerTurnAround::mean       16.772727                       # Writes before turning the bus around for reads
system.mem_ctrl.wrPerTurnAround::gmean      16.744935                       # Writes before turning the bus around for reads
system.mem_ctrl.wrPerTurnAround::stdev       0.985090                       # Writes before turning the bus around for reads
system.mem_ctrl.wrPerTurnAround::16                27     61.36%     61.36% # Writes before turning the bus around for reads
system.mem_ctrl.wrPerTurnAround::18                17     38.64%    100.00% # Writes before turning the bus around for reads
system.mem_ctrl.wrPerTurnAround::total             44                       # Writes before turning the bus around for reads
system.mem_ctrl.bytesReadDRAM                  402048                       # Total number of bytes read from DRAM
system.mem_ctrl.bytesReadWrQ                     1536                       # Total number of bytes read from write queue
system.mem_ctrl.bytesWritten                    47232                       # Total number of bytes written to DRAM
system.mem_ctrl.bytesReadSys                   403584                       # Total read bytes from the system interface side
system.mem_ctrl.bytesWrittenSys                 48832                       # Total written bytes from the system interface side
system.mem_ctrl.avgRdBW                        102.53                       # Average DRAM read bandwidth in MiByte/s
system.mem_ctrl.avgWrBW                         12.04                       # Average achieved write bandwidth in MiByte/s
system.mem_ctrl.avgRdBWSys                     102.92                       # Average system read bandwidth in MiByte/s
system.mem_ctrl.avgWrBWSys                      12.45                       # Average system write bandwidth in MiByte/s
system.mem_ctrl.peakBW                       12800.00                       # Theoretical peak bandwidth in MiByte/s
system.mem_ctrl.busUtil                          0.90                       # Data bus utilization in percentage
system.mem_ctrl.busUtilRead                      0.80                       # Data bus utilization in percentage for reads
system.mem_ctrl.busUtilWrite                     0.09                       # Data bus utilization in percentage for writes
system.mem_ctrl.totGap                     3567656000                       # Total gap between requests
system.mem_ctrl.avgGap                      504690.34                       # Average gap between requests
system.mem_ctrl.masterReadBytes::.cpu.inst       107392                       # Per-master bytes read from memory
system.mem_ctrl.masterReadBytes::.cpu.data       294656                       # Per-master bytes read from memory
system.mem_ctrl.masterWriteBytes::.writebacks        47232                       # Per-master bytes write to memory
system.mem_ctrl.masterReadRate::.cpu.inst 27386221.409358117729                       # Per-master bytes read from memory rate (Bytes/sec)
system.mem_ctrl.masterReadRate::.cpu.data 75140740.982529670000                       # Per-master bytes read from memory rate (Bytes/sec)
system.mem_ctrl.masterWriteRate::.writebacks 12044714.779562747106                       # Per-master bytes write to memory rate (Bytes/sec)
system.mem_ctrl.masterReadAccesses::.cpu.inst         1678                       # Per-master read serviced memory accesses
system.mem_ctrl.masterReadAccesses::.cpu.data         4628                       # Per-master read serviced memory accesses
system.mem_ctrl.masterWriteAccesses::.writebacks          763                       # Per-master write serviced memory accesses
system.mem_ctrl.masterReadTotalLat::.cpu.inst     46938500                       # Per-master read total memory access latency
system.mem_ctrl.masterReadTotalLat::.cpu.data    124884250                       # Per-master read total memory access latency
system.mem_ctrl.masterWriteTotalLat::.writebacks  67803047000                       # Per-master write total memory access latency
system.mem_ctrl.masterReadAvgLat::.cpu.inst     27972.88                       # Per-master read average memory access latency
system.mem_ctrl.masterReadAvgLat::.cpu.data     26984.50                       # Per-master read average memory access latency
system.mem_ctrl.masterWriteAvgLat::.writebacks  88863757.54                       # Per-master write average memory access latency
system.mem_ctrl.pageHitRate                     73.20                       # Row buffer hit rate, read and write combined
system.mem_ctrl.rank1.actEnergy               7304220                       # Energy for activate commands per rank (pJ)
system.mem_ctrl.rank1.preEnergy               3882285                       # Energy for precharge commands per rank (pJ)
system.mem_ctrl.rank1.readEnergy             24147480                       # Energy for read commands per rank (pJ)
system.mem_ctrl.rank1.writeEnergy             2583900                       # Energy for write commands per rank (pJ)
system.mem_ctrl.rank1.refreshEnergy      309163920.000000                       # Energy for refresh commands per rank (pJ)
system.mem_ctrl.rank1.actBackEnergy         814653690                       # Energy for active background per rank (pJ)
system.mem_ctrl.rank1.preBackEnergy         819789120                       # Energy for precharge background per rank (pJ)
system.mem_ctrl.rank1.actPowerDownEnergy            0                       # Energy for active power-down per rank (pJ)
system.mem_ctrl.rank1.prePowerDownEnergy            0                       # Energy for precharge power-down per rank (pJ)
system.mem_ctrl.rank1.selfRefreshEnergy             0                       # Energy for self refresh per rank (pJ)
system.mem_ctrl.rank1.totalEnergy          1981524615                       # Total energy per rank (pJ)
system.mem_ctrl.rank1.averagePower         505.312051                       # Core power per rank (mW)
system.mem_ctrl.rank1.totalIdleTime                 0                       # Total Idle time Per DRAM Rank
system.mem_ctrl.rank1.memoryStateTime::IDLE   2123022750                       # Time in different power states
system.mem_ctrl.rank1.memoryStateTime::REF    130780000                       # Time in different power states
system.mem_ctrl.rank1.memoryStateTime::SREF            0                       # Time in different power states
system.mem_ctrl.rank1.memoryStateTime::PRE_PDN            0                       # Time in different power states
system.mem_ctrl.rank1.memoryStateTime::ACT   1667585250                       # Time in different power states
system.mem_ctrl.rank1.memoryStateTime::ACT_PDN            0                       # Time in different power states
system.mem_ctrl.rank0.actEnergy               6004740                       # Energy for activate commands per rank (pJ)
system.mem_ctrl.rank0.preEnergy               3191595                       # Energy for precharge commands per rank (pJ)
system.mem_ctrl.rank0.readEnergy             20706000                       # Energy for read commands per rank (pJ)
system.mem_ctrl.rank0.writeEnergy             1268460                       # Energy for write commands per rank (pJ)
system.mem_ctrl.rank0.refreshEnergy      309163920.000000                       # Energy for refresh commands per rank (pJ)
system.mem_ctrl.rank0.actBackEnergy         679506120                       # Energy for active background per rank (pJ)
system.mem_ctrl.rank0.preBackEnergy         933597600                       # Energy for precharge background per rank (pJ)
system.mem_ctrl.rank0.actPowerDownEnergy            0                       # Energy for active power-down per rank (pJ)
system.mem_ctrl.rank0.prePowerDownEnergy            0                       # Energy for precharge power-down per rank (pJ)
system.mem_ctrl.rank0.selfRefreshEnergy             0                       # Energy for self refresh per rank (pJ)
system.mem_ctrl.rank0.totalEnergy          1953438435                       # Total energy per rank (pJ)
system.mem_ctrl.rank0.averagePower         498.149746                       # Core power per rank (mW)
system.mem_ctrl.rank0.totalIdleTime                 0                       # Total Idle time Per DRAM Rank
system.mem_ctrl.rank0.memoryStateTime::IDLE   2419671000                       # Time in different power states
system.mem_ctrl.rank0.memoryStateTime::REF    130780000                       # Time in different power states
system.mem_ctrl.rank0.memoryStateTime::SREF            0                       # Time in different power states
system.mem_ctrl.rank0.memoryStateTime::PRE_PDN            0                       # Time in different power states
system.mem_ctrl.rank0.memoryStateTime::ACT   1370937000                       # Time in different power states
system.mem_ctrl.rank0.memoryStateTime::ACT_PDN            0                       # Time in different power states
system.mem_ctrl.power_state.pwrStateResidencyTicks::UNDEFINED   3921388000                       # Cumulative time (in ticks) in various power states
system.cache_medium.blocked_cycles::no_mshrs            0                       # number of cycles access was blocked
system.cache_medium.blocked_cycles::no_targets            0                       # number of cycles access was blocked
system.cache_medium.blocked::no_mshrs               0                       # number of cycles access was blocked
system.cache_medium.blocked::no_targets             0                       # number of cycles access was blocked
system.cache_medium.avg_blocked_cycles::no_mshrs          nan                       # average number of cycles each access was blocked
system.cache_medium.avg_blocked_cycles::no_targets          nan                       # average number of cycles each access was blocked
system.cache_medium.replacements                    0                       # number of replacements
system.cache_medium.power_state.pwrStateResidencyTicks::UNDEFINED   3921388000                       # Cumulative time (in ticks) in various power states
system.cache_medium.tags.tagsinuse                  0                       # Cycle average of tags in use
system.cache_medium.tags.total_refs                 0                       # Total number of references to valid blocks.
system.cache_medium.tags.sampled_refs               0                       # Sample count of references to valid blocks.
system.cache_medium.tags.avg_refs                 nan                       # Average number of references to valid blocks.
system.cache_medium.tags.warmup_cycle               0                       # Cycle when the warmup percentage was hit.
system.cache_medium.tags.tag_accesses               0                       # Number of tag accesses
system.cache_medium.tags.data_accesses              0                       # Number of data accesses
system.cache_medium.tags.power_state.pwrStateResidencyTicks::UNDEFINED   3921388000                       # Cumulative time (in ticks) in various power states
system.clk_domain.clock                          1000                       # Clock period in ticks
system.clk_domain.voltage_domain.voltage            1                       # Voltage in Volts
system.dcache.demand_hits::.cpu.data           304309                       # number of demand (read+write) hits
system.dcache.demand_hits::total               304309                       # number of demand (read+write) hits
system.dcache.overall_hits::.cpu.data          304942                       # number of overall hits
system.dcache.overall_hits::total              304942                       # number of overall hits
system.dcache.demand_misses::.cpu.data           8959                       # number of demand (read+write) misses
system.dcache.demand_misses::total               8959                       # number of demand (read+write) misses
system.dcache.overall_misses::.cpu.data          9300                       # number of overall misses
system.dcache.overall_misses::total              9300                       # number of overall misses
system.dcache.demand_miss_latency::.cpu.data    424406000                       # number of demand (read+write) miss cycles
system.dcache.demand_miss_latency::total    424406000                       # number of demand (read+write) miss cycles
system.dcache.overall_miss_latency::.cpu.data    436021000                       # number of overall miss cycles
system.dcache.overall_miss_latency::total    436021000                       # number of overall miss cycles
system.dcache.demand_accesses::.cpu.data       313268                       # number of demand (read+write) accesses
system.dcache.demand_accesses::total           313268                       # number of demand (read+write) accesses
system.dcache.overall_accesses::.cpu.data       314242                       # number of overall (read+write) accesses
system.dcache.overall_accesses::total          314242                       # number of overall (read+write) accesses
system.dcache.demand_miss_rate::.cpu.data     0.028599                       # miss rate for demand accesses
system.dcache.demand_miss_rate::total        0.028599                       # miss rate for demand accesses
system.dcache.overall_miss_rate::.cpu.data     0.029595                       # miss rate for overall accesses
system.dcache.overall_miss_rate::total       0.029595                       # miss rate for overall accesses
system.dcache.demand_avg_miss_latency::.cpu.data 47372.028128                       # average overall miss latency
system.dcache.demand_avg_miss_latency::total 47372.028128                       # average overall miss latency
system.dcache.overall_avg_miss_latency::.cpu.data 46883.978495                       # average overall miss latency
system.dcache.overall_avg_miss_latency::total 46883.978495                       # average overall miss latency
system.dcache.blocked_cycles::no_mshrs              0                       # number of cycles access was blocked
system.dcache.blocked_cycles::no_targets            0                       # number of cycles access was blocked
system.dcache.blocked::no_mshrs                     0                       # number of cycles access was blocked
system.dcache.blocked::no_targets                   0                       # number of cycles access was blocked
system.dcache.avg_blocked_cycles::no_mshrs          nan                       # average number of cycles each access was blocked
system.dcache.avg_blocked_cycles::no_targets          nan                       # average number of cycles each access was blocked
system.dcache.writebacks::.writebacks            5741                       # number of writebacks
system.dcache.writebacks::total                  5741                       # number of writebacks
system.dcache.demand_mshr_misses::.cpu.data         8959                       # number of demand (read+write) MSHR misses
system.dcache.demand_mshr_misses::total          8959                       # number of demand (read+write) MSHR misses
system.dcache.overall_mshr_misses::.cpu.data         9300                       # number of overall MSHR misses
system.dcache.overall_mshr_misses::total         9300                       # number of overall MSHR misses
[...]
system.dcache.tags.age_task_id_blocks_1024::0            3                       # Occupied blocks per task id
system.dcache.tags.age_task_id_blocks_1024::1           19                       # Occupied blocks per task id
system.dcache.tags.age_task_id_blocks_1024::2          234                       # Occupied blocks per task id
system.dcache.tags.occ_task_id_percent::1024            1                       # Percentage of cache occupancy per task id
system.dcache.tags.tag_accesses               2764708                       # Number of tag accesses
system.dcache.tags.data_accesses              2764708                       # Number of data accesses
system.dcache.tags.power_state.pwrStateResidencyTicks::UNDEFINED  31136616000                       # Cumulative time (in ticks) in various power states
system.cache_large.blocked_cycles::no_mshrs            0                       # number of cycles access was blocked
system.cache_large.blocked_cycles::no_targets            0                       # number of cycles access was blocked
system.cache_large.blocked::no_mshrs                0                       # number of cycles access was blocked
system.cache_large.blocked::no_targets              0                       # number of cycles access was blocked
system.cache_large.avg_blocked_cycles::no_mshrs          nan                       # average number of cycles each access was blocked
system.cache_large.avg_blocked_cycles::no_targets          nan                       # average number of cycles each access was blocked
system.cache_large.replacements                     0                       # number of replacements
system.cache_large.power_state.pwrStateResidencyTicks::UNDEFINED  31136616000                       # Cumulative time (in ticks) in various power states
system.cache_large.tags.tagsinuse                   0                       # Cycle average of tags in use
system.cache_large.tags.total_refs                  0                       # Total number of references to valid blocks.
system.cache_large.tags.sampled_refs                0                       # Sample count of references to valid blocks.
system.cache_large.tags.avg_refs                  nan                       # Average number of references to valid blocks.
system.cache_large.tags.warmup_cycle                0                       # Cycle when the warmup percentage was hit.
system.cache_large.tags.tag_accesses                0                       # Number of tag accesses
system.cache_large.tags.data_accesses               0                       # Number of data accesses
system.cache_large.tags.power_state.pwrStateResidencyTicks::UNDEFINED  31136616000                       # Cumulative time (in ticks) in various power states
system.l2cache.demand_hits::.cpu.inst           85490                       # number of demand (read+write) hits
system.l2cache.demand_hits::.cpu.data           36632                       # number of demand (read+write) hits
system.l2cache.demand_hits::total              122122                       # number of demand (read+write) hits
system.l2cache.overall_hits::.cpu.inst          85490                       # number of overall hits
system.l2cache.overall_hits::.cpu.data          36632                       # number of overall hits
system.l2cache.overall_hits::total             122122                       # number of overall hits
system.l2cache.demand_misses::.cpu.inst         64956                       # number of demand (read+write) misses
system.l2cache.demand_misses::.cpu.data         60544                       # number of demand (read+write) misses
system.l2cache.demand_misses::total            125500                       # number of demand (read+write) misses
system.l2cache.overall_misses::.cpu.inst        64956                       # number of overall misses
system.l2cache.overall_misses::.cpu.data        60544                       # number of overall misses
system.l2cache.overall_misses::total           125500                       # number of overall misses
system.l2cache.demand_miss_latency::.cpu.inst   2274451000                       # number of demand (read+write) miss cycles
system.l2cache.demand_miss_latency::.cpu.data   2826966000                       # number of demand (read+write) miss cycles
system.l2cache.demand_miss_latency::total   5101417000                       # number of demand (read+write) miss cycles
system.l2cache.overall_miss_latency::.cpu.inst   2274451000                       # number of overall miss cycles
system.l2cache.overall_miss_latency::.cpu.data   2826966000                       # number of overall miss cycles
system.l2cache.overall_miss_latency::total   5101417000                       # number of overall miss cycles
system.l2cache.demand_accesses::.cpu.inst       150446                       # number of demand (read+write) accesses
system.l2cache.demand_accesses::.cpu.data        97176                       # number of demand (read+write) accesses
system.l2cache.demand_accesses::total          247622                       # number of demand (read+write) accesses
system.l2cache.overall_accesses::.cpu.inst       150446                       # number of overall (read+write) accesses
system.l2cache.overall_accesses::.cpu.data        97176                       # number of overall (read+write) accesses
system.l2cache.overall_accesses::total         247622                       # number of overall (read+write) accesses
system.l2cache.demand_miss_rate::.cpu.inst     0.431756                       # miss rate for demand accesses
system.l2cache.demand_miss_rate::.cpu.data     0.623034                       # miss rate for demand accesses
system.l2cache.demand_miss_rate::total       0.506821                       # miss rate for demand accesses
system.l2cache.overall_miss_rate::.cpu.inst     0.431756                       # miss rate for overall accesses
system.l2cache.overall_miss_rate::.cpu.data     0.623034                       # miss rate for overall accesses
system.l2cache.overall_miss_rate::total      0.506821                       # miss rate for overall accesses
system.l2cache.demand_avg_miss_latency::.cpu.inst 35015.256481                       # average overall miss latency
system.l2cache.demand_avg_miss_latency::.cpu.data 46692.752378                       # average overall miss latency
system.l2cache.demand_avg_miss_latency::total 40648.741036                       # average overall miss latency
system.l2cache.overall_avg_miss_latency::.cpu.inst 35015.256481                       # average overall miss latency
system.l2cache.overall_avg_miss_latency::.cpu.data 46692.752378                       # average overall miss latency
system.l2cache.overall_avg_miss_latency::total 40648.741036                       # average overall miss latency
system.l2cache.blocked_cycles::no_mshrs             0                       # number of cycles access was blocked
system.l2cache.blocked_cycles::no_targets            0                       # number of cycles access was blocked
system.l2cache.blocked::no_mshrs                    0                       # number of cycles access was blocked
system.l2cache.blocked::no_targets                  0                       # number of cycles access was blocked
system.l2cache.avg_blocked_cycles::no_mshrs          nan                       # average number of cycles each access was blocked
system.l2cache.avg_blocked_cycles::no_targets          nan                       # average number of cycles each access was blocked
system.l2cache.writebacks::.writebacks          41607                       # number of writebacks
system.l2cache.writebacks::total                41607                       # number of writebacks
system.l2cache.demand_mshr_misses::.cpu.inst        64956                       # number of demand (read+write) MSHR misses
system.l2cache.demand_mshr_misses::.cpu.data        60544                       # number of demand (read+write) MSHR misses
system.l2cache.demand_mshr_misses::total       125500                       # number of demand (read+write) MSHR misses
system.l2cache.overall_mshr_misses::.cpu.inst        64956                       # number of overall MSHR misses
system.l2cache.overall_mshr_misses::.cpu.data        60544                       # number of overall MSHR misses
system.l2cache.overall_mshr_misses::total       125500                       # number of overall MSHR misses
system.l2cache.demand_mshr_miss_latency::.cpu.inst   2144539000                       # number of demand (read+write) MSHR miss cycles
system.l2cache.demand_mshr_miss_latency::.cpu.data   2705878000                       # number of demand (read+write) MSHR miss cycles
system.l2cache.demand_mshr_miss_latency::total   4850417000                       # number of demand (read+write) MSHR miss cycles
system.l2cache.overall_mshr_miss_latency::.cpu.inst   2144539000                       # number of overall MSHR miss cycles
system.l2cache.overall_mshr_miss_latency::.cpu.data   2705878000                       # number of overall MSHR miss cycles
system.l2cache.overall_mshr_miss_latency::total   4850417000                       # number of overall MSHR miss cycles
system.l2cache.demand_mshr_miss_rate::.cpu.inst     0.431756                       # mshr miss rate for demand accesses
system.l2cache.demand_mshr_miss_rate::.cpu.data     0.623034                       # mshr miss rate for demand accesses
system.l2cache.demand_mshr_miss_rate::total     0.506821                       # mshr miss rate for demand accesses
system.l2cache.overall_mshr_miss_rate::.cpu.inst     0.431756                       # mshr miss rate for overall accesses
system.l2cache.overall_mshr_miss_rate::.cpu.data     0.623034                       # mshr miss rate for overall accesses
system.l2cache.overall_mshr_miss_rate::total     0.506821                       # mshr miss rate for overall accesses
system.l2cache.demand_avg_mshr_miss_latency::.cpu.inst 33015.256481                       # average overall mshr miss latency
system.l2cache.demand_avg_mshr_miss_latency::.cpu.data 44692.752378                       # average overall mshr miss latency
system.l2cache.demand_avg_mshr_miss_latency::total 38648.741036                       # average overall mshr miss latency
system.l2cache.overall_avg_mshr_miss_latency::.cpu.inst 33015.256481                       # average overall mshr miss latency
system.l2cache.overall_avg_mshr_miss_latency::.cpu.data 44692.752378                       # average overall mshr miss latency
system.l2cache.overall_avg_mshr_miss_latency::total 38648.741036                       # average overall mshr miss latency
system.l2cache.replacements                    149066                       # number of replacements
system.l2cache.ReadReq_hits::.cpu.inst          85490                       # number of ReadReq hits
system.l2cache.ReadReq_hits::.cpu.data          36632                       # number of ReadReq hits
system.l2cache.ReadReq_hits::total             122122                       # number of ReadReq hits
system.l2cache.ReadReq_misses::.cpu.inst        64956                       # number of ReadReq misses
system.l2cache.ReadReq_misses::.cpu.data        60544                       # number of ReadReq misses
system.l2cache.ReadReq_misses::total           125500                       # number of ReadReq misses
system.l2cache.ReadReq_miss_latency::.cpu.inst   2274451000                       # number of ReadReq miss cycles
system.l2cache.ReadReq_miss_latency::.cpu.data   2826966000                       # number of ReadReq miss cycles
system.l2cache.ReadReq_miss_latency::total   5101417000                       # number of ReadReq miss cycles
system.l2cache.ReadReq_accesses::.cpu.inst       150446                       # number of ReadReq accesses(hits+misses)
system.l2cache.ReadReq_accesses::.cpu.data        97176                       # number of ReadReq accesses(hits+misses)
system.l2cache.ReadReq_accesses::total         247622                       # number of ReadReq accesses(hits+misses)
system.l2cache.ReadReq_miss_rate::.cpu.inst     0.431756                       # miss rate for ReadReq accesses
system.l2cache.ReadReq_miss_rate::.cpu.data     0.623034                       # miss rate for ReadReq accesses
system.l2cache.ReadReq_miss_rate::total      0.506821                       # miss rate for ReadReq accesses
system.l2cache.ReadReq_avg_miss_latency::.cpu.inst 35015.256481                       # average ReadReq miss latency
system.l2cache.ReadReq_avg_miss_latency::.cpu.data 46692.752378                       # average ReadReq miss latency
system.l2cache.ReadReq_avg_miss_latency::total 40648.741036                       # average ReadReq miss latency
system.l2cache.ReadReq_mshr_misses::.cpu.inst        64956                       # number of ReadReq MSHR misses
system.l2cache.ReadReq_mshr_misses::.cpu.data        60544                       # number of ReadReq MSHR misses
system.l2cache.ReadReq_mshr_misses::total       125500                       # number of ReadReq MSHR misses
system.l2cache.ReadReq_mshr_miss_latency::.cpu.inst   2144539000                       # number of ReadReq MSHR miss cycles
system.l2cache.ReadReq_mshr_miss_latency::.cpu.data   2705878000                       # number of ReadReq MSHR miss cycles
system.l2cache.ReadReq_mshr_miss_latency::total   4850417000                       # number of ReadReq MSHR miss cycles
system.l2cache.ReadReq_mshr_miss_rate::.cpu.inst     0.431756                       # mshr miss rate for ReadReq accesses
system.l2cache.ReadReq_mshr_miss_rate::.cpu.data     0.623034                       # mshr miss rate for ReadReq accesses
system.l2cache.ReadReq_mshr_miss_rate::total     0.506821                       # mshr miss rate for ReadReq accesses
system.l2cache.ReadReq_avg_mshr_miss_latency::.cpu.inst 33015.256481                       # average ReadReq mshr miss latency
system.l2cache.ReadReq_avg_mshr_miss_latency::.cpu.data 44692.752378                       # average ReadReq mshr miss latency
system.l2cache.ReadReq_avg_mshr_miss_latency::total 38648.741036                       # average ReadReq mshr miss latency
system.l2cache.WritebackDirty_hits::.writebacks        50706                       # number of WritebackDirty hits
system.l2cache.WritebackDirty_hits::total        50706                       # number of WritebackDirty hits
system.l2cache.WritebackDirty_accesses::.writebacks        50706                       # number of WritebackDirty accesses(hits+misses)
system.l2cache.WritebackDirty_accesses::total        50706                       # number of WritebackDirty accesses(hits+misses)
system.l2cache.power_state.pwrStateResidencyTicks::UNDEFINED  31136616000                       # Cumulative time (in ticks) in various power states
system.l2cache.tags.tagsinuse              510.944426                       # Cycle average of tags in use
system.l2cache.tags.total_refs                 298328                       # Total number of references to valid blocks.
system.l2cache.tags.sampled_refs               149578                       # Sample count of references to valid blocks.
system.l2cache.tags.avg_refs                 1.994464                       # Average number of references to valid blocks.
system.l2cache.tags.warmup_cycle                78000                       # Cycle when the warmup percentage was hit.
system.l2cache.tags.occ_blocks::.writebacks   116.667877                       # Average occupied blocks per requestor
system.l2cache.tags.occ_blocks::.cpu.inst   134.011671                       # Average occupied blocks per requestor
system.l2cache.tags.occ_blocks::.cpu.data   260.264877                       # Average occupied blocks per requestor
system.l2cache.tags.occ_percent::.writebacks     0.227867                       # Average percentage of cache occupancy
system.l2cache.tags.occ_percent::.cpu.inst     0.261742                       # Average percentage of cache occupancy
system.l2cache.tags.occ_percent::.cpu.data     0.508330                       # Average percentage of cache occupancy
system.l2cache.tags.occ_percent::total       0.997938                       # Average percentage of cache occupancy
system.l2cache.tags.occ_task_id_blocks::1024          512                       # Occupied blocks per task id
system.l2cache.tags.age_task_id_blocks_1024::1           18                       # Occupied blocks per task id
system.l2cache.tags.age_task_id_blocks_1024::2          441                       # Occupied blocks per task id
system.l2cache.tags.age_task_id_blocks_1024::3           53                       # Occupied blocks per task id
system.l2cache.tags.occ_task_id_percent::1024            1                       # Percentage of cache occupancy per task id
system.l2cache.tags.tag_accesses               447906                       # Number of tag accesses
system.l2cache.tags.data_accesses              447906                       # Number of data accesses
system.l2cache.tags.power_state.pwrStateResidencyTicks::UNDEFINED  31136616000                       # Cumulative time (in ticks) in various power states
system.l2bar.trans_dist::ReadReq               247622                       # Transaction distribution
system.l2bar.trans_dist::ReadResp              247622                       # Transaction distribution
system.l2bar.trans_dist::WritebackDirty         50706                       # Transaction distribution
system.l2bar.pkt_count_system.dcache.mem_side::system.l2cache.cpu_side       245058                       # Packet count per connected master and slave (bytes)
system.l2bar.pkt_count_system.icache.mem_side::system.l2cache.cpu_side       300892                       # Packet count per connected master and slave (bytes)
system.l2bar.pkt_count::total                  545950                       # Packet count per connected master and slave (bytes)
system.l2bar.pkt_size_system.dcache.mem_side::system.l2cache.cpu_side      9464448                       # Cumulative packet size per connected master and slave (bytes)
system.l2bar.pkt_size_system.icache.mem_side::system.l2cache.cpu_side      9628544                       # Cumulative packet size per connected master and slave (bytes)
system.l2bar.pkt_size::total                 19092992                       # Cumulative packet size per connected master and slave (bytes)
system.l2bar.respLayer1.occupancy           752230000                       # Layer occupancy (ticks)
system.l2bar.respLayer1.utilization               2.4                       # Layer utilization (%)
system.l2bar.reqLayer0.occupancy            501152000                       # Layer occupancy (ticks)
system.l2bar.reqLayer0.utilization                1.6                       # Layer utilization (%)
system.l2bar.respLayer0.occupancy           485880000                       # Layer occupancy (ticks)
system.l2bar.respLayer0.utilization               1.6                       # Layer utilization (%)
system.l2bar.power_state.pwrStateResidencyTicks::UNDEFINED  31136616000                       # Cumulative time (in ticks) in various power states
system.cpu.dtb.walker.power_state.pwrStateResidencyTicks::UNDEFINED  31136616000                       # Cumulative time (in ticks) in various power states
system.cpu.interrupts.clk_domain.clock          16000                       # Clock period in ticks
system.cpu.itb.walker.power_state.pwrStateResidencyTicks::UNDEFINED  31136616000                       # Cumulative time (in ticks) in various power states
system.cpu.power_state.numTransitions               1                       # Number of power state transitions
system.cpu.power_state.pwrStateResidencyTicks::ON  31136616000                       # Cumulative time (in ticks) in various power states

---------- End Simulation Statistics   ----------
