
---------- Begin Simulation Statistics ----------
final_tick                                 3974758000                       # Number of ticks from beginning of simulation (restored from checkpoints and never reset)
host_inst_rate                                  75427                       # Simulator instruction rate (inst/s)
host_mem_usage                               34267344                       # Number of bytes of host memory used
host_op_rate                                   155413                       # Simulator op (including micro ops) rate (op/s)
host_seconds                                    13.26                       # Real time elapsed on the host
host_tick_rate                              299735509                       # Simulator tick rate (ticks/s)
sim_freq                                 1000000000000                       # Frequency of simulated ticks
sim_insts                                     1000201                       # Number of instructions simulated
sim_ops                                       2060908                       # Number of ops (including micro ops) simulated
sim_seconds                                  0.003975                       # Number of seconds simulated
sim_ticks                                  3974758000                       # Number of ticks simulated
system.cpu.Branches                            239610                       # Number of branches fetched
system.cpu.committedInsts                     1000201                       # Number of instructions committed
system.cpu.committedOps                       2060908                       # Number of ops (including micro ops) committed
system.cpu.dtb.rdAccesses                      201651                       # TLB accesses on read requests
system.cpu.dtb.rdMisses                            74                       # TLB misses on read requests
system.cpu.dtb.wrAccesses                      139464                       # TLB accesses on write requests
system.cpu.dtb.wrMisses                            62                       # TLB misses on write requests
system.cpu.idle_fraction                            0                       # Percentage of idle cycles
system.cpu.itb.rdAccesses                           0                       # TLB accesses on read requests
system.cpu.itb.rdMisses                             0                       # TLB misses on read requests
system.cpu.itb.wrAccesses                     1319845                       # TLB accesses on write requests
system.cpu.itb.wrMisses                           164                       # TLB misses on write requests
system.cpu.not_idle_fraction                        1                       # Percentage of non-idle cycles
system.cpu.numCycles                          3974747                       # number of cpu cycles simulated
system.cpu.numWorkItemsCompleted                    0                       # number of work items this cpu completed
system.cpu.numWorkItemsStarted                      0                       # number of work items this cpu started
system.cpu.num_busy_cycles                    3974747                       # Number of busy cycles
system.cpu.num_cc_register_reads              1493498                       # number of times the CC registers were read
system.cpu.num_cc_register_writes              634819                       # number of times the CC registers were written
system.cpu.num_conditional_control_insts       176827                       # number of instructions that are conditional controls
system.cpu.num_fp_alu_accesses                  81407                       # Number of float alu accesses
system.cpu.num_fp_insts                         81407                       # number of float instructions
system.cpu.num_fp_register_reads               136568                       # number of times the floating registers were read
system.cpu.num_fp_register_writes               69051                       # number of times the floating registers were written
system.cpu.num_func_calls                       43021                       # number of times a function call or return occured
system.cpu.num_idle_cycles                          0                       # Number of idle cycles
system.cpu.num_int_alu_accesses               1990455                       # Number of integer alu accesses
system.cpu.num_int_insts                      1990455                       # number of integer instructions
system.cpu.num_int_register_reads             3845604                       # number of times the integer registers were read
system.cpu.num_int_register_writes            1603940                       # number of times the integer registers were written
system.cpu.num_load_insts                      201373                       # Number of load instructions
system.cpu.num_mem_refs                        340746                       # number of memory refs
system.cpu.num_store_insts                     139373                       # Number of store instructions
system.cpu.num_vec_alu_accesses                     0                       # Number of vector alu accesses
system.cpu.num_vec_insts                            0                       # number of vector instructions
system.cpu.num_vec_register_reads                   0                       # number of times the vector registers were read
system.cpu.num_vec_register_writes                  0                       # number of times the vector registers were written
system.cpu.op_class::No_OpClass                 14342      0.70%      0.70% # Class of executed instruction
system.cpu.op_class::IntAlu                   1643775     79.76%     80.45% # Class of executed instruction
system.cpu.op_class::IntMult                       20      0.00%     80.46% # Class of executed instruction
system.cpu.op_class::IntDiv                        42      0.00%     80.46% # Class of executed instruction
system.cpu.op_class::FloatAdd                    2029      0.10%     80.56% # Class of executed instruction
system.cpu.op_class::FloatCmp                       0      0.00%     80.56% # Class of executed instruction
system.cpu.op_class::FloatCvt                       0      0.00%     80.56% # Class of executed instruction
system.cpu.op_class::FloatMult                      0      0.00%     80.56% # Class of executed instruction
system.cpu.op_class::FloatMultAcc                   0      0.00%     80.56% # Class of executed instruction
system.cpu.op_class::FloatDiv                       0      0.00%     80.56% # Class of executed instruction
system.cpu.op_class::FloatMisc                      0      0.00%     80.56% # Class of executed instruction
system.cpu.op_class::FloatSqrt                      0      0.00%     80.56% # Class of executed instruction
system.cpu.op_class::SimdAdd                       20      0.00%     80.56% # Class of executed instruction
system.cpu.op_class::SimdAddAcc                     0      0.00%     80.56% # Class of executed instruction
system.cpu.op_class::SimdAlu                    20512      1.00%     81.55% # Class of executed instruction
system.cpu.op_class::SimdCmp                      454      0.02%     81.57% # Class of executed instruction
system.cpu.op_class::SimdCvt                    14402      0.70%     82.27% # Class of executed instruction
system.cpu.op_class::SimdMisc                   24566      1.19%     83.47% # Class of executed instruction
system.cpu.op_class::SimdMult                       0      0.00%     83.47% # Class of executed instruction
system.cpu.op_class::SimdMultAcc                    0      0.00%     83.47% # Class of executed instruction
system.cpu.op_class::SimdShift                      0      0.00%     83.47% # Class of executed instruction
system.cpu.op_class::SimdShiftAcc                   0      0.00%     83.47% # Class of executed instruction
system.cpu.op_class::SimdDiv                        0      0.00%     83.47% # Class of executed instruction
system.cpu.op_class::SimdSqrt                       0      0.00%     83.47% # Class of executed instruction
system.cpu.op_class::SimdFloatAdd                   0      0.00%     83.47% # Class of executed instruction
system.cpu.op_class::SimdFloatAlu                   0      0.00%     83.47% # Class of executed instruction
system.cpu.op_class::SimdFloatCmp                   0      0.00%     83.47% # Class of executed instruction
system.cpu.op_class::SimdFloatCvt                   0      0.00%     83.47% # Class of executed instruction
system.cpu.op_class::SimdFloatDiv                  25      0.00%     83.47% # Class of executed instruction
system.cpu.op_class::SimdFloatMisc                  0      0.00%     83.47% # Class of executed instruction
system.cpu.op_class::SimdFloatMult                  0      0.00%     83.47% # Class of executed instruction
system.cpu.op_class::SimdFloatMultAcc               0      0.00%     83.47% # Class of executed instruction
system.cpu.op_class::SimdFloatSqrt                  0      0.00%     83.47% # Class of executed instruction
system.cpu.op_class::SimdReduceAdd                  0      0.00%     83.47% # Class of executed instruction
system.cpu.op_class::SimdReduceAlu                  0      0.00%     83.47% # Class of executed instruction
system.cpu.op_class::SimdReduceCmp                  0      0.00%     83.47% # Class of executed instruction
system.cpu.op_class::SimdFloatReduceAdd             0      0.00%     83.47% # Class of executed instruction
system.cpu.op_class::SimdFloatReduceCmp             0      0.00%     83.47% # Class of executed instruction
system.cpu.op_class::SimdAes                        0      0.00%     83.47% # Class of executed instruction
system.cpu.op_class::SimdAesMix                     0      0.00%     83.47% # Class of executed instruction
system.cpu.op_class::SimdSha1Hash                   0      0.00%     83.47% # Class of executed instruction
system.cpu.op_class::SimdSha1Hash2                  0      0.00%     83.47% # Class of executed instruction
system.cpu.op_class::SimdSha256Hash                 0      0.00%     83.47% # Class of executed instruction
system.cpu.op_class::SimdSha256Hash2                0      0.00%     83.47% # Class of executed instruction
system.cpu.op_class::SimdShaSigma2                  0      0.00%     83.47% # Class of executed instruction
system.cpu.op_class::SimdShaSigma3                  0      0.00%     83.47% # Class of executed instruction
system.cpu.op_class::SimdPredAlu                    0      0.00%     83.47% # Class of executed instruction
system.cpu.op_class::MemRead                   190021      9.22%     92.69% # Class of executed instruction
system.cpu.op_class::MemWrite                  137380      6.67%     99.35% # Class of executed instruction
system.cpu.op_class::FloatMemRead               11352      0.55%     99.90% # Class of executed instruction
system.cpu.op_class::FloatMemWrite               1993      0.10%    100.00% # Class of executed instruction
system.cpu.op_class::IprAccess                      0      0.00%    100.00% # Class of executed instruction
system.cpu.op_class::InstPrefetch                   0      0.00%    100.00% # Class of executed instruction
system.cpu.op_class::total                    2060933                       # Class of executed instruction
system.cpu.workload.numSyscalls                    13                       # Number of system calls
system.dynamic_cache.flushTicks                     0                       # Ticks taken to flush
system.dynamic_cache.numFlushes                     0                       # Number of Flushes Taken
system.cache_small.demand_hits::.cpu.inst        10566                       # number of demand (read+write) hits
system.cache_small.demand_hits::.cpu.data         1536                       # number of demand (read+write) hits
system.cache_small.demand_hits::total           12102                       # number of demand (read+write) hits
system.cache_small.overall_hits::.cpu.inst        10566                       # number of overall hits
system.cache_small.overall_hits::.cpu.data         1536                       # number of overall hits
system.cache_small.overall_hits::total          12102                       # number of overall hits
system.cache_small.demand_misses::.cpu.inst         1901                       # number of demand (read+write) misses
system.cache_small.demand_misses::.cpu.data         2444                       # number of demand (read+write) misses
system.cache_small.demand_misses::total          4345                       # number of demand (read+write) misses
system.cache_small.overall_misses::.cpu.inst         1901                       # number of overall misses
system.cache_small.overall_misses::.cpu.data         2444                       # number of overall misses
system.cache_small.overall_misses::total         4345                       # number of overall misses
system.cache_small.demand_miss_latency::.cpu.inst    114515000                       # number of demand (read+write) miss cycles
system.cache_small.demand_miss_latency::.cpu.data    147584000                       # number of demand (read+write) miss cycles
system.cache_small.demand_miss_latency::total    262099000                       # number of demand (read+write) miss cycles
system.cache_small.overall_miss_latency::.cpu.inst    114515000                       # number of overall miss cycles
system.cache_small.overall_miss_latency::.cpu.data    147584000                       # number of overall miss cycles
system.cache_small.overall_miss_latency::total    262099000                       # number of overall miss cycles
system.cache_small.demand_accesses::.cpu.inst        12467                       # number of demand (read+write) accesses
system.cache_small.demand_accesses::.cpu.data         3980                       # number of demand (read+write) accesses
system.cache_small.demand_accesses::total        16447                       # number of demand (read+write) accesses
system.cache_small.overall_accesses::.cpu.inst        12467                       # number of overall (read+write) accesses
system.cache_small.overall_accesses::.cpu.data         3980                       # number of overall (read+write) accesses
system.cache_small.overall_accesses::total        16447                       # number of overall (read+write) accesses
system.cache_small.demand_miss_rate::.cpu.inst     0.152483                       # miss rate for demand accesses
system.cache_small.demand_miss_rate::.cpu.data     0.614070                       # miss rate for demand accesses
system.cache_small.demand_miss_rate::total     0.264182                       # miss rate for demand accesses
system.cache_small.overall_miss_rate::.cpu.inst     0.152483                       # miss rate for overall accesses
system.cache_small.overall_miss_rate::.cpu.data     0.614070                       # miss rate for overall accesses
system.cache_small.overall_miss_rate::total     0.264182                       # miss rate for overall accesses
system.cache_small.demand_avg_miss_latency::.cpu.inst 60239.347712                       # average overall miss latency
system.cache_small.demand_avg_miss_latency::.cpu.data 60386.252046                       # average overall miss latency
system.cache_small.demand_avg_miss_latency::total 60321.979287                       # average overall miss latency
system.cache_small.overall_avg_miss_latency::.cpu.inst 60239.347712                       # average overall miss latency
system.cache_small.overall_avg_miss_latency::.cpu.data 60386.252046                       # average overall miss latency
system.cache_small.overall_avg_miss_latency::total 60321.979287                       # average overall miss latency
system.cache_small.blocked_cycles::no_mshrs            0                       # number of cycles access was blocked
system.cache_small.blocked_cycles::no_targets            0                       # number of cycles access was blocked
system.cache_small.blocked::no_mshrs                0                       # number of cycles access was blocked
system.cache_small.blocked::no_targets              0                       # number of cycles access was blocked
system.cache_small.avg_blocked_cycles::no_mshrs          nan                       # average number of cycles each access was blocked
system.cache_small.avg_blocked_cycles::no_targets          nan                       # average number of cycles each access was blocked
system.cache_small.writebacks::.writebacks          279                       # number of writebacks
system.cache_small.writebacks::total              279                       # number of writebacks
system.cache_small.demand_mshr_misses::.cpu.inst         1901                       # number of demand (read+write) MSHR misses
system.cache_small.demand_mshr_misses::.cpu.data         2444                       # number of demand (read+write) MSHR misses
system.cache_small.demand_mshr_misses::total         4345                       # number of demand (read+write) MSHR misses
system.cache_small.overall_mshr_misses::.cpu.inst         1901                       # number of overall MSHR misses
system.cache_small.overall_mshr_misses::.cpu.data         2444                       # number of overall MSHR misses
system.cache_small.overall_mshr_misses::total         4345                       # number of overall MSHR misses
system.cache_small.demand_mshr_miss_latency::.cpu.inst    110713000                       # number of demand (read+write) MSHR miss cycles
system.cache_small.demand_mshr_miss_latency::.cpu.data    142696000                       # number of demand (read+write) MSHR miss cycles
system.cache_small.demand_mshr_miss_latency::total    253409000                       # number of demand (read+write) MSHR miss cycles
system.cache_small.overall_mshr_miss_latency::.cpu.inst    110713000                       # number of overall MSHR miss cycles
system.cache_small.overall_mshr_miss_latency::.cpu.data    142696000                       # number of overall MSHR miss cycles
system.cache_small.overall_mshr_miss_latency::total    253409000                       # number of overall MSHR miss cycles
system.cache_small.demand_mshr_miss_rate::.cpu.inst     0.152483                       # mshr miss rate for demand accesses
system.cache_small.demand_mshr_miss_rate::.cpu.data     0.614070                       # mshr miss rate for demand accesses
system.cache_small.demand_mshr_miss_rate::total     0.264182                       # mshr miss rate for demand accesses
system.cache_small.overall_mshr_miss_rate::.cpu.inst     0.152483                       # mshr miss rate for overall accesses
system.cache_small.overall_mshr_miss_rate::.cpu.data     0.614070                       # mshr miss rate for overall accesses
system.cache_small.overall_mshr_miss_rate::total     0.264182                       # mshr miss rate for overall accesses
system.cache_small.demand_avg_mshr_miss_latency::.cpu.inst 58239.347712                       # average overall mshr miss latency
system.cache_small.demand_avg_mshr_miss_latency::.cpu.data 58386.252046                       # average overall mshr miss latency
system.cache_small.demand_avg_mshr_miss_latency::total 58321.979287                       # average overall mshr miss latency
system.cache_small.overall_avg_mshr_miss_latency::.cpu.inst 58239.347712                       # average overall mshr miss latency
system.cache_small.overall_avg_mshr_miss_latency::.cpu.data 58386.252046                       # average overall mshr miss latency
system.cache_small.overall_avg_mshr_miss_latency::total 58321.979287                       # average overall mshr miss latency
system.cache_small.replacements                   939                       # number of replacements
system.cache_small.ReadReq_hits::.cpu.inst        10566                       # number of ReadReq hits
system.cache_small.ReadReq_hits::.cpu.data         1536                       # number of ReadReq hits
system.cache_small.ReadReq_hits::total          12102                       # number of ReadReq hits
system.cache_small.ReadReq_misses::.cpu.inst         1901                       # number of ReadReq misses
system.cache_small.ReadReq_misses::.cpu.data         2444                       # number of ReadReq misses
system.cache_small.ReadReq_misses::total         4345                       # number of ReadReq misses
system.cache_small.ReadReq_miss_latency::.cpu.inst    114515000                       # number of ReadReq miss cycles
system.cache_small.ReadReq_miss_latency::.cpu.data    147584000                       # number of ReadReq miss cycles
system.cache_small.ReadReq_miss_latency::total    262099000                       # number of ReadReq miss cycles
system.cache_small.ReadReq_accesses::.cpu.inst        12467                       # number of ReadReq accesses(hits+misses)
system.cache_small.ReadReq_accesses::.cpu.data         3980                       # number of ReadReq accesses(hits+misses)
system.cache_small.ReadReq_accesses::total        16447                       # number of ReadReq accesses(hits+misses)
system.cache_small.ReadReq_miss_rate::.cpu.inst     0.152483                       # miss rate for ReadReq accesses
system.cache_small.ReadReq_miss_rate::.cpu.data     0.614070                       # miss rate for ReadReq accesses
system.cache_small.ReadReq_miss_rate::total     0.264182                       # miss rate for ReadReq accesses
system.cache_small.ReadReq_avg_miss_latency::.cpu.inst 60239.347712                       # average ReadReq miss latency
system.cache_small.ReadReq_avg_miss_latency::.cpu.data 60386.252046                       # average ReadReq miss latency
system.cache_small.ReadReq_avg_miss_latency::total 60321.979287                       # average ReadReq miss latency
system.cache_small.ReadReq_mshr_misses::.cpu.inst         1901                       # number of ReadReq MSHR misses
system.cache_small.ReadReq_mshr_misses::.cpu.data         2444                       # number of ReadReq MSHR misses
system.cache_small.ReadReq_mshr_misses::total         4345                       # number of ReadReq MSHR misses
system.cache_small.ReadReq_mshr_miss_latency::.cpu.inst    110713000                       # number of ReadReq MSHR miss cycles
system.cache_small.ReadReq_mshr_miss_latency::.cpu.data    142696000                       # number of ReadReq MSHR miss cycles
system.cache_small.ReadReq_mshr_miss_latency::total    253409000                       # number of ReadReq MSHR miss cycles
system.cache_small.ReadReq_mshr_miss_rate::.cpu.inst     0.152483                       # mshr miss rate for ReadReq accesses
system.cache_small.ReadReq_mshr_miss_rate::.cpu.data     0.614070                       # mshr miss rate for ReadReq accesses
system.cache_small.ReadReq_mshr_miss_rate::total     0.264182                       # mshr miss rate for ReadReq accesses
system.cache_small.ReadReq_avg_mshr_miss_latency::.cpu.inst 58239.347712                       # average ReadReq mshr miss latency
system.cache_small.ReadReq_avg_mshr_miss_latency::.cpu.data 58386.252046                       # average ReadReq mshr miss latency
system.cache_small.ReadReq_avg_mshr_miss_latency::total 58321.979287                       # average ReadReq mshr miss latency
system.cache_small.WritebackDirty_hits::.writebacks         2948                       # number of WritebackDirty hits
system.cache_small.WritebackDirty_hits::total         2948                       # number of WritebackDirty hits
system.cache_small.WritebackDirty_accesses::.writebacks         2948                       # number of WritebackDirty accesses(hits+misses)
system.cache_small.WritebackDirty_accesses::total         2948                       # number of WritebackDirty accesses(hits+misses)
system.cache_small.power_state.pwrStateResidencyTicks::UNDEFINED   3974758000                       # Cumulative time (in ticks) in various power states
system.cache_small.tags.tagsinuse         2744.729749                       # Cycle average of tags in use
system.cache_small.tags.total_refs               1979                       # Total number of references to valid blocks.
system.cache_small.tags.sampled_refs              939                       # Sample count of references to valid blocks.
system.cache_small.tags.avg_refs             2.107561                       # Average number of references to valid blocks.
system.cache_small.tags.warmup_cycle            76000                       # Cycle when the warmup percentage was hit.
system.cache_small.tags.occ_blocks::.writebacks    18.559512                       # Average occupied blocks per requestor
system.cache_small.tags.occ_blocks::.cpu.inst  1312.985951                       # Average occupied blocks per requestor
system.cache_small.tags.occ_blocks::.cpu.data  1413.184286                       # Average occupied blocks per requestor
system.cache_small.tags.occ_percent::.writebacks     0.002266                       # Average percentage of cache occupancy
system.cache_small.tags.occ_percent::.cpu.inst     0.160277                       # Average percentage of cache occupancy
system.cache_small.tags.occ_percent::.cpu.data     0.172508                       # Average percentage of cache occupancy
system.cache_small.tags.occ_percent::total     0.335050                       # Average percentage of cache occupancy
system.cache_small.tags.occ_task_id_blocks::1024         3519                       # Occupied blocks per task id
system.cache_small.tags.age_task_id_blocks_1024::0           15                       # Occupied blocks per task id
system.cache_small.tags.age_task_id_blocks_1024::1           33                       # Occupied blocks per task id
system.cache_small.tags.age_task_id_blocks_1024::2          189                       # Occupied blocks per task id
system.cache_small.tags.age_task_id_blocks_1024::3         3282                       # Occupied blocks per task id
system.cache_small.tags.occ_task_id_percent::1024     0.429565                       # Percentage of cache occupancy per task id
system.cache_small.tags.tag_accesses            23853                       # Number of tag accesses
system.cache_small.tags.data_accesses           23853                       # Number of data accesses
system.cache_small.tags.power_state.pwrStateResidencyTicks::UNDEFINED   3974758000                       # Cumulative time (in ticks) in various power states
system.icache.demand_hits::.cpu.inst          1303766                       # number of demand (read+write) hits
system.icache.demand_hits::total              1303766                       # number of demand (read+write) hits
system.icache.overall_hits::.cpu.inst         1303766                       # number of overall hits
system.icache.overall_hits::total             1303766                       # number of overall hits
system.icache.demand_misses::.cpu.inst          16079                       # number of demand (read+write) misses
system.icache.demand_misses::total              16079                       # number of demand (read+write) misses
system.icache.overall_misses::.cpu.inst         16079                       # number of overall misses
system.icache.overall_misses::total             16079                       # number of overall misses
system.icache.demand_miss_latency::.cpu.inst    402117000                       # number of demand (read+write) miss cycles
system.icache.demand_miss_latency::total    402117000                       # number of demand (read+write) miss cycles
system.icache.overall_miss_latency::.cpu.inst    402117000                       # number of overall miss cycles
system.icache.overall_miss_latency::total    402117000                       # number of overall miss cycles
system.icache.demand_accesses::.cpu.inst      1319845                       # number of demand (read+write) accesses
system.icache.demand_accesses::total          1319845                       # number of demand (read+write) accesses
system.icache.overall_accesses::.cpu.inst      1319845                       # number of overall (read+write) accesses
system.icache.overall_accesses::total         1319845                       # number of overall (read+write) accesses
system.icache.demand_miss_rate::.cpu.inst     0.012182                       # miss rate for demand accesses
system.icache.demand_miss_rate::total        0.012182                       # miss rate for demand accesses
system.icache.overall_miss_rate::.cpu.inst     0.012182                       # miss rate for overall accesses
system.icache.overall_miss_rate::total       0.012182                       # miss rate for overall accesses
system.icache.demand_avg_miss_latency::.cpu.inst 25008.831395                       # average overall miss latency
system.icache.demand_avg_miss_latency::total 25008.831395                       # average overall miss latency
system.icache.overall_avg_miss_latency::.cpu.inst 25008.831395                       # average overall miss latency
system.icache.overall_avg_miss_latency::total 25008.831395                       # average overall miss latency
system.icache.blocked_cycles::no_mshrs              0                       # number of cycles access was blocked
system.icache.blocked_cycles::no_targets            0                       # number of cycles access was blocked
system.icache.blocked::no_mshrs                     0                       # number of cycles access was blocked
system.icache.blocked::no_targets                   0                       # number of cycles access was blocked
system.icache.avg_blocked_cycles::no_mshrs          nan                       # average number of cycles each access was blocked
system.icache.avg_blocked_cycles::no_targets          nan                       # average number of cycles each access was blocked
system.icache.demand_mshr_misses::.cpu.inst        16079                       # number of demand (read+write) MSHR misses
system.icache.demand_mshr_misses::total         16079                       # number of demand (read+write) MSHR misses
system.icache.overall_mshr_misses::.cpu.inst        16079                       # number of overall MSHR misses
system.icache.overall_mshr_misses::total        16079                       # number of overall MSHR misses
system.icache.demand_mshr_miss_latency::.cpu.inst    369961000                       # number of demand (read+write) MSHR miss cycles
system.icache.demand_mshr_miss_latency::total    369961000                       # number of demand (read+write) MSHR miss cycles
system.icache.overall_mshr_miss_latency::.cpu.inst    369961000                       # number of overall MSHR miss cycles
system.icache.overall_mshr_miss_latency::total    369961000                       # number of overall MSHR miss cycles
system.icache.demand_mshr_miss_rate::.cpu.inst     0.012182                       # mshr miss rate for demand accesses
system.icache.demand_mshr_miss_rate::total     0.012182                       # mshr miss rate for demand accesses
system.icache.overall_mshr_miss_rate::.cpu.inst     0.012182                       # mshr miss rate for overall accesses
system.icache.overall_mshr_miss_rate::total     0.012182                       # mshr miss rate for overall accesses
system.icache.demand_avg_mshr_miss_latency::.cpu.inst 23008.955781                       # average overall mshr miss latency
system.icache.demand_avg_mshr_miss_latency::total 23008.955781                       # average overall mshr miss latency
system.icache.overall_avg_mshr_miss_latency::.cpu.inst 23008.955781                       # average overall mshr miss latency
system.icache.overall_avg_mshr_miss_latency::total 23008.955781                       # average overall mshr miss latency
system.icache.replacements                      15822                       # number of replacements
system.icache.ReadReq_hits::.cpu.inst         1303766                       # number of ReadReq hits
system.icache.ReadReq_hits::total             1303766                       # number of ReadReq hits
system.icache.ReadReq_misses::.cpu.inst         16079                       # number of ReadReq misses
system.icache.ReadReq_misses::total             16079                       # number of ReadReq misses
system.icache.ReadReq_miss_latency::.cpu.inst    402117000                       # number of ReadReq miss cycles
system.icache.ReadReq_miss_latency::total    402117000                       # number of ReadReq miss cycles
system.icache.ReadReq_accesses::.cpu.inst      1319845                       # number of ReadReq accesses(hits+misses)
system.icache.ReadReq_accesses::total         1319845                       # number of ReadReq accesses(hits+misses)
system.icache.ReadReq_miss_rate::.cpu.inst     0.012182                       # miss rate for ReadReq accesses
system.icache.ReadReq_miss_rate::total       0.012182                       # miss rate for ReadReq accesses
system.icache.ReadReq_avg_miss_latency::.cpu.inst 25008.831395                       # average ReadReq miss latency
system.icache.ReadReq_avg_miss_latency::total 25008.831395                       # average ReadReq miss latency
system.icache.ReadReq_mshr_misses::.cpu.inst        16079                       # number of ReadReq MSHR misses
system.icache.ReadReq_mshr_misses::total        16079                       # number of ReadReq MSHR misses
system.icache.ReadReq_mshr_miss_latency::.cpu.inst    369961000                       # number of ReadReq MSHR miss cycles
system.icache.ReadReq_mshr_miss_latency::total    369961000                       # number of ReadReq MSHR miss cycles
system.icache.ReadReq_mshr_miss_rate::.cpu.inst     0.012182                       # mshr miss rate for ReadReq accesses
system.icache.ReadReq_mshr_miss_rate::total     0.012182                       # mshr miss rate for ReadReq accesses
system.icache.ReadReq_avg_mshr_miss_latency::.cpu.inst 23008.955781                       # average ReadReq mshr miss latency
system.icache.ReadReq_avg_mshr_miss_latency::total 23008.955781                       # average ReadReq mshr miss latency
system.icache.power_state.pwrStateResidencyTicks::UNDEFINED   3974758000                       # Cumulative time (in ticks) in various power states
system.icache.tags.tagsinuse               251.450059                       # Cycle average of tags in use
system.icache.tags.total_refs                 1117186                       # Total number of references to valid blocks.
system.icache.tags.sampled_refs                 15822                       # Sample count of references to valid blocks.
system.icache.tags.avg_refs                 70.609657                       # Average number of references to valid blocks.
system.icache.tags.warmup_cycle                 82000                       # Cycle when the warmup percentage was hit.
system.icache.tags.occ_blocks::.cpu.inst   251.450059                       # Average occupied blocks per requestor
system.icache.tags.occ_percent::.cpu.inst     0.982227                       # Average percentage of cache occupancy
system.icache.tags.occ_percent::total        0.982227                       # Average percentage of cache occupancy
system.icache.tags.occ_task_id_blocks::1024          256                       # Occupied blocks per task id
system.icache.tags.age_task_id_blocks_1024::0           46                       # Occupied blocks per task id
system.icache.tags.age_task_id_blocks_1024::1           26                       # Occupied blocks per task id
system.icache.tags.age_task_id_blocks_1024::2           39                       # Occupied blocks per task id
system.icache.tags.age_task_id_blocks_1024::3          145                       # Occupied blocks per task id
system.icache.tags.occ_task_id_percent::1024            1                       # Percentage of cache occupancy per task id
system.icache.tags.tag_accesses               1335923                       # Number of tag accesses
system.icache.tags.data_accesses              1335923                       # Number of data accesses
system.icache.tags.power_state.pwrStateResidencyTicks::UNDEFINED   3974758000                       # Cumulative time (in ticks) in various power states
system.membus.trans_dist::ReadReq                4345                       # Transaction distribution
system.membus.trans_dist::ReadResp               4345                       # Transaction distribution
system.membus.trans_dist::WritebackDirty          279                       # Transaction distribution
system.membus.pkt_count_system.cache_small.mem_side::system.mem_ctrl.port         8969                       # Packet count per connected master and slave (bytes)
system.membus.pkt_count_system.cache_small.mem_side::total         8969                       # Packet count per connected master and slave (bytes)
system.membus.pkt_count::total                   8969                       # Packet count per connected master and slave (bytes)
system.membus.pkt_size_system.cache_small.mem_side::system.mem_ctrl.port       295936                       # Cumulative packet size per connected master and slave (bytes)
system.membus.pkt_size_system.cache_small.mem_side::total       295936                       # Cumulative packet size per connected master and slave (bytes)
system.membus.pkt_size::total                  295936                       # Cumulative packet size per connected master and slave (bytes)
system.membus.reqLayer2.occupancy             5740000                       # Layer occupancy (ticks)
system.membus.reqLayer2.utilization               0.1                       # Layer utilization (%)
system.membus.respLayer1.occupancy           23206000                       # Layer occupancy (ticks)
system.membus.respLayer1.utilization              0.6                       # Layer utilization (%)
system.membus.power_state.pwrStateResidencyTicks::UNDEFINED   3974758000                       # Cumulative time (in ticks) in various power states
system.mem_ctrl.bytes_read::.cpu.inst          121664                       # Number of bytes read from this memory
system.mem_ctrl.bytes_read::.cpu.data          156416                       # Number of bytes read from this memory
system.mem_ctrl.bytes_read::total              278080                       # Number of bytes read from this memory
system.mem_ctrl.bytes_inst_read::.cpu.inst       121664                       # Number of instructions bytes read from this memory
system.mem_ctrl.bytes_inst_read::total         121664                       # Number of instructions bytes read from this memory
system.mem_ctrl.bytes_written::.writebacks        17856                       # Number of bytes written to this memory
system.mem_ctrl.bytes_written::total            17856                       # Number of bytes written to this memory
system.mem_ctrl.num_reads::.cpu.inst             1901                       # Number of read requests responded to by this memory
system.mem_ctrl.num_reads::.cpu.data             2444                       # Number of read requests responded to by this memory
system.mem_ctrl.num_reads::total                 4345                       # Number of read requests responded to by this memory
system.mem_ctrl.num_writes::.writebacks           279                       # Number of write requests responded to by this memory
system.mem_ctrl.num_writes::total                 279                       # Number of write requests responded to by this memory
system.mem_ctrl.bw_read::.cpu.inst           30609159                       # Total read bandwidth from this memory (bytes/s)
system.mem_ctrl.bw_read::.cpu.data           39352333                       # Total read bandwidth from this memory (bytes/s)
system.mem_ctrl.bw_read::total               69961492                       # Total read bandwidth from this memory (bytes/s)
system.mem_ctrl.bw_inst_read::.cpu.inst      30609159                       # Instruction read bandwidth from this memory (bytes/s)
system.mem_ctrl.bw_inst_read::total          30609159                       # Instruction read bandwidth from this memory (bytes/s)
system.mem_ctrl.bw_write::.writebacks         4492349                       # Write bandwidth from this memory (bytes/s)
system.mem_ctrl.bw_write::total               4492349                       # Write bandwidth from this memory (bytes/s)
system.mem_ctrl.bw_total::.writebacks         4492349                       # Total bandwidth to/from this memory (bytes/s)
system.mem_ctrl.bw_total::.cpu.inst          30609159                       # Total bandwidth to/from this memory (bytes/s)
system.mem_ctrl.bw_total::.cpu.data          39352333                       # Total bandwidth to/from this memory (bytes/s)
system.mem_ctrl.bw_total::total              74453841                       # Total bandwidth to/from this memory (bytes/s)
system.mem_ctrl.avgPriority_.writebacks::samples       201.00                       # Average QoS priority value for accepted requests
system.mem_ctrl.avgPriority_.cpu.inst::samples      1901.00                       # Average QoS priority value for accepted requests
system.mem_ctrl.avgPriority_.cpu.data::samples      2371.00                       # Average QoS priority value for accepted requests
system.mem_ctrl.priorityMinLatency       0.000000018750                       # per QoS priority minimum request to response latency (s)
system.mem_ctrl.priorityMaxLatency       0.003087649250                       # per QoS priority maximum request to response latency (s)
system.mem_ctrl.numReadWriteTurnArounds            10                       # Number of turnarounds from READ to WRITE
system.mem_ctrl.numWriteReadTurnArounds            10                       # Number of turnarounds from WRITE to READ
system.mem_ctrl.numStayReadState                 9841                       # Number of times bus staying in READ state
system.mem_ctrl.numStayWriteState                 168                       # Number of times bus staying in WRITE state
system.mem_ctrl.readReqs                         4345                       # Number of read requests accepted
system.mem_ctrl.writeReqs                         279                       # Number of write requests accepted
system.mem_ctrl.readBursts                       4345                       # Number of DRAM read bursts, including those serviced by the write queue
system.mem_ctrl.writeBursts                       279                       # Number of DRAM write bursts, including those merged in the write queue
system.mem_ctrl.servicedByWrQ                      73                       # Number of DRAM read bursts serviced by the write queue
system.mem_ctrl.mergedWrBursts                     78                       # Number of DRAM write bursts merged with an existing one
system.mem_ctrl.neitherReadNorWriteReqs             0                       # Number of requests that are neither read nor write
system.mem_ctrl.perBankRdBursts::0                306                       # Per bank write bursts
system.mem_ctrl.perBankRdBursts::1                345                       # Per bank write bursts
system.mem_ctrl.perBankRdBursts::2                264                       # Per bank write bursts
system.mem_ctrl.perBankRdBursts::3                 85                       # Per bank write bursts
system.mem_ctrl.perBankRdBursts::4                254                       # Per bank write bursts
system.mem_ctrl.perBankRdBursts::5                312                       # Per bank write bursts
system.mem_ctrl.perBankRdBursts::6                214                       # Per bank write bursts
system.mem_ctrl.perBankRdBursts::7                299                       # Per bank write bursts
system.mem_ctrl.perBankRdBursts::8                202                       # Per bank write bursts
system.mem_ctrl.perBankRdBursts::9                250                       # Per bank write bursts
system.mem_ctrl.perBankRdBursts::10               194                       # Per bank write bursts
system.mem_ctrl.perBankRdBursts::11               350                       # Per bank write bursts
system.mem_ctrl.perBankRdBursts::12               278                       # Per bank write bursts
system.mem_ctrl.perBankRdBursts::13               269                       # Per bank write bursts
system.mem_ctrl.perBankRdBursts::14               352                       # Per bank write bursts
system.mem_ctrl.perBankRdBursts::15               298                       # Per bank write bursts
system.mem_ctrl.perBankWrBursts::0                  2                       # Per bank write bursts
system.mem_ctrl.perBankWrBursts::1                  2                       # Per bank write bursts
system.mem_ctrl.perBankWrBursts::2                  3                       # Per bank write bursts
system.mem_ctrl.perBankWrBursts::3                  0                       # Per bank write bursts
system.mem_ctrl.perBankWrBursts::4                 42                       # Per bank write bursts
system.mem_ctrl.perBankWrBursts::5                 72                       # Per bank write bursts
system.mem_ctrl.perBankWrBursts::6                  2                       # Per bank write bursts
system.mem_ctrl.perBankWrBursts::7                  0                       # Per bank write bursts
system.mem_ctrl.perBankWrBursts::8                  4                       # Per bank write bursts
system.mem_ctrl.perBankWrBursts::9                  6                       # Per bank write bursts
system.mem_ctrl.perBankWrBursts::10                 0                       # Per bank write bursts
system.mem_ctrl.perBankWrBursts::11                33                       # Per bank write bursts
system.mem_ctrl.perBankWrBursts::12                11                       # Per bank write bursts
system.mem_ctrl.perBankWrBursts::13                 1                       # Per bank write bursts
system.mem_ctrl.perBankWrBursts::14                 0                       # Per bank write bursts
system.mem_ctrl.perBankWrBursts::15                 0                       # Per bank write bursts
system.mem_ctrl.avgRdQLen                        1.00                       # Average read queue length when enqueuing
system.mem_ctrl.avgWrQLen                       19.78                       # Average write queue length when enqueuing
system.mem_ctrl.totQLat                      37863000                       # Total ticks spent queuing
system.mem_ctrl.totBusLat                    21360000                       # Total ticks spent in databus transfers
system.mem_ctrl.totMemAccLat                117963000                       # Total ticks spent from burst creation until serviced by the DRAM
system.mem_ctrl.avgQLat                       8863.06                       # Average queueing delay per DRAM burst
system.mem_ctrl.avgBusLat                     5000.00                       # Average bus latency per DRAM burst
system.mem_ctrl.avgMemAccLat                 27613.06                       # Average memory access latency per DRAM burst
system.mem_ctrl.numRdRetry                          0                       # Number of times read queue was full causing retry
system.mem_ctrl.numWrRetry                          0                       # Number of times write queue was full causing retry
system.mem_ctrl.readRowHits                      2746                       # Number of row buffer hits during reads
system.mem_ctrl.writeRowHits                      150                       # Number of row buffer hits during writes
system.mem_ctrl.readRowHitRate                  64.28                       # Row buffer hit rate for reads
system.mem_ctrl.writeRowHitRate                 74.63                       # Row buffer hit rate for writes
system.mem_ctrl.readPktSize::0                      0                       # Read request sizes (log2)
system.mem_ctrl.readPktSize::1                      0                       # Read request sizes (log2)
system.mem_ctrl.readPktSize::2                      0                       # Read request sizes (log2)
system.mem_ctrl.readPktSize::3                      0                       # Read request sizes (log2)
system.mem_ctrl.readPktSize::4                      0                       # Read request sizes (log2)
system.mem_ctrl.readPktSize::5                      0                       # Read request sizes (log2)
system.mem_ctrl.readPktSize::6                   4345                       # Read request sizes (log2)
system.mem_ctrl.writePktSize::0                     0                       # Write request sizes (log2)
system.mem_ctrl.writePktSize::1                     0                       # Write request sizes (log2)
system.mem_ctrl.writePktSize::2                     0                       # Write request sizes (log2)
system.mem_ctrl.writePktSize::3                     0                       # Write request sizes (log2)
system.mem_ctrl.writePktSize::4                     0                       # Write request sizes (log2)
system.mem_ctrl.writePktSize::5                     0                       # Write request sizes (log2)
system.mem_ctrl.writePktSize::6                   279                       # Write request sizes (log2)
system.mem_ctrl.rdQLenPdf::0                     4272                       # What read queue length does an incoming req see
system.mem_ctrl.rdQLenPdf::1                        0                       # What read queue length does an incoming req see
system.mem_ctrl.rdQLenPdf::2                        0                       # What read queue length does an incoming req see
system.mem_ctrl.rdQLenPdf::3                        0                       # What read queue length does an incoming req see
system.mem_ctrl.rdQLenPdf::4                        0                       # What read queue length does an incoming req see
system.mem_ctrl.rdQLenPdf::5                        0                       # What read queue length does an incoming req see
system.mem_ctrl.rdQLenPdf::6                        0                       # What read queue length does an incoming req see
system.mem_ctrl.rdQLenPdf::7                        0                       # What read queue length does an incoming req see
system.mem_ctrl.rdQLenPdf::8                        0                       # What read queue length does an incoming req see
system.mem_ctrl.rdQLenPdf::9                        0                       # What read queue length does an incoming req see
system.mem_ctrl.rdQLenPdf::10                       0                       # What read queue length does an incoming req see
system.mem_ctrl.rdQLenPdf::11                       0                       # What read queue length does an incoming req see
system.mem_ctrl.rdQLenPdf::12                       0                       # What read queue length does an incoming req see
system.mem_ctrl.rdQLenPdf::13                       0                       # What read queue length does an incoming req see
system.mem_ctrl.rdQLenPdf::14                       0                       # What read queue length does an incoming req see
system.mem_ctrl.rdQLenPdf::15                       0                       # What read queue length does an incoming req see
system.mem_ctrl.rdQLenPdf::16                       0                       # What read queue length does an incoming req see
system.mem_ctrl.rdQLenPdf::17                       0                       # What read queue length does an incoming req see
system.mem_ctrl.rdQLenPdf::18                       0                       # What read queue length does an incoming req see
system.mem_ctrl.rdQLenPdf::19                       0                       # What read queue length does an incoming req see
system.mem_ctrl.rdQLenPdf::20                       0                       # What read queue length does an incoming req see
system.mem_ctrl.rdQLenPdf::21                       0                       # What read queue length does an incoming req see
system.mem_ctrl.rdQLenPdf::22                       0                       # What read queue length does an incoming req see
system.mem_ctrl.rdQLenPdf::23                       0                       # What read queue length does an incoming req see
system.mem_ctrl.rdQLenPdf::24                       0                       # What read queue length does an incoming req see
system.mem_ctrl.rdQLenPdf::25                       0                       # What read queue length does an incoming req see
system.mem_ctrl.rdQLenPdf::26                       0                       # What read queue length does an incoming req see
system.mem_ctrl.rdQLenPdf::27                       0                       # What read queue length does an incoming req see
system.mem_ctrl.rdQLenPdf::28                       0                       # What read queue length does an incoming req see
system.mem_ctrl.rdQLenPdf::29                       0                       # What read queue length does an incoming req see
system.mem_ctrl.rdQLenPdf::30                       0                       # What read queue length does an incoming req see
system.mem_ctrl.rdQLenPdf::31                       0                       # What read queue length does an incoming req see
system.mem_ctrl.wrQLenPdf::0                        1                       # What write queue length does an incoming req see
system.mem_ctrl.wrQLenPdf::1                        1                       # What write queue length does an incoming req see
system.mem_ctrl.wrQLenPdf::2                        1                       # What write queue length does an incoming req see
system.mem_ctrl.wrQLenPdf::3                        1                       # What write queue length does an incoming req see
system.mem_ctrl.wrQLenPdf::4                        1                       # What write queue length does an incoming req see
system.mem_ctrl.wrQLenPdf::5                        1                       # What write queue length does an incoming req see
system.mem_ctrl.wrQLenPdf::6                        1                       # What write queue length does an incoming req see
system.mem_ctrl.wrQLenPdf::7                        1                       # What write queue length does an incoming req see
system.mem_ctrl.wrQLenPdf::8                        1                       # What write queue length does an incoming req see
system.mem_ctrl.wrQLenPdf::9                        1                       # What write queue length does an incoming req see
system.mem_ctrl.wrQLenPdf::10                       1                       # What write queue length does an incoming req see
system.mem_ctrl.wrQLenPdf::11                       1                       # What write queue length does an incoming req see
system.mem_ctrl.wrQLenPdf::12                       1                       # What write queue length does an incoming req see
system.mem_ctrl.wrQLenPdf::13                       1                       # What write queue length does an incoming req see
system.mem_ctrl.wrQLenPdf::14                       1                       # What write queue length does an incoming req see
system.mem_ctrl.wrQLenPdf::15                      10                       # What write queue length does an incoming req see
system.mem_ctrl.wrQLenPdf::16                      10                       # What write queue length does an incoming req see
system.mem_ctrl.wrQLenPdf::17                      11                       # What write queue length does an incoming req see
system.mem_ctrl.wrQLenPdf::18                      11                       # What write queue length does an incoming req see
system.mem_ctrl.wrQLenPdf::19                      11                       # What write queue length does an incoming req see
system.mem_ctrl.wrQLenPdf::20                      11                       # What write queue length does an incoming req see
system.mem_ctrl.wrQLenPdf::21                      11                       # What write queue length does an incoming req see
system.mem_ctrl.wrQLenPdf::22                      11                       # What write queue length does an incoming req see
system.mem_ctrl.wrQLenPdf::23                      10                       # What write queue length does an incoming req see
system.mem_ctrl.wrQLenPdf::24                      10                       # What write queue length does an incoming req see
system.mem_ctrl.wrQLenPdf::25                      10                       # What write queue length does an incoming req see
system.mem_ctrl.wrQLenPdf::26                      10                       # What write queue length does an incoming req see
system.mem_ctrl.wrQLenPdf::27                      10                       # What write queue length does an incoming req see
system.mem_ctrl.wrQLenPdf::28                      10                       # What write queue length does an incoming req see
system.mem_ctrl.wrQLenPdf::29                      10                       # What write queue length does an incoming req see
system.mem_ctrl.wrQLenPdf::30                      10                       # What write queue length does an incoming req see
system.mem_ctrl.wrQLenPdf::31                      10                       # What write queue length does an incoming req see
system.mem_ctrl.wrQLenPdf::32                      10                       # What write queue length does an incoming req see
system.mem_ctrl.wrQLenPdf::33                       0                       # What write queue length does an incoming req see
system.mem_ctrl.wrQLenPdf::34                       0                       # What write queue length does an incoming req see
system.mem_ctrl.wrQLenPdf::35                       0                       # What write queue length does an incoming req see
system.mem_ctrl.wrQLenPdf::36                       0                       # What write queue length does an incoming req see
system.mem_ctrl.wrQLenPdf::37                       0                       # What write queue length does an incoming req see
system.mem_ctrl.wrQLenPdf::38                       0                       # What write queue length does an incoming req see
system.mem_ctrl.wrQLenPdf::39                       0                       # What write queue length does an incoming req see
system.mem_ctrl.wrQLenPdf::40                       0                       # What write queue length does an incoming req see
system.mem_ctrl.wrQLenPdf::41                       0                       # What write queue length does an incoming req see
system.mem_ctrl.wrQLenPdf::42                       0                       # What write queue length does an incoming req see
system.mem_ctrl.wrQLenPdf::43                       0                       # What write queue length does an incoming req see
system.mem_ctrl.wrQLenPdf::44                       0                       # What write queue length does an incoming req see
system.mem_ctrl.wrQLenPdf::45                       0                       # What write queue length does an incoming req see
system.mem_ctrl.wrQLenPdf::46                       0                       # What write queue length does an incoming req see
system.mem_ctrl.wrQLenPdf::47                       0                       # What write queue length does an incoming req see
system.mem_ctrl.wrQLenPdf::48                       0                       # What write queue length does an incoming req see
system.mem_ctrl.wrQLenPdf::49                       0                       # What write queue length does an incoming req see
system.mem_ctrl.wrQLenPdf::50                       0                       # What write queue length does an incoming req see
system.mem_ctrl.wrQLenPdf::51                       0                       # What write queue length does an incoming req see
system.mem_ctrl.wrQLenPdf::52                       0                       # What write queue length does an incoming req see
system.mem_ctrl.wrQLenPdf::53                       0                       # What write queue length does an incoming req see
system.mem_ctrl.wrQLenPdf::54                       0                       # What write queue length does an incoming req see
system.mem_ctrl.wrQLenPdf::55                       0                       # What write queue length does an incoming req see
system.mem_ctrl.wrQLenPdf::56                       0                       # What write queue length does an incoming req see
system.mem_ctrl.wrQLenPdf::57                       0                       # What write queue length does an incoming req see
system.mem_ctrl.wrQLenPdf::58                       0                       # What write queue length does an incoming req see
system.mem_ctrl.wrQLenPdf::59                       0                       # What write queue length does an incoming req see
system.mem_ctrl.wrQLenPdf::60                       0                       # What write queue length does an incoming req see
system.mem_ctrl.wrQLenPdf::61                       0                       # What write queue length does an incoming req see
system.mem_ctrl.wrQLenPdf::62                       0                       # What write queue length does an incoming req see
system.mem_ctrl.wrQLenPdf::63                       0                       # What write queue length does an incoming req see
system.mem_ctrl.bytesPerActivate::samples         1553                       # Bytes accessed per row activation
system.mem_ctrl.bytesPerActivate::mean     183.345782                       # Bytes accessed per row activation
system.mem_ctrl.bytesPerActivate::gmean    133.620371                       # Bytes accessed per row activation
system.mem_ctrl.bytesPerActivate::stdev    183.607674                       # Bytes accessed per row activation
system.mem_ctrl.bytesPerActivate::0-127           603     38.83%     38.83% # Bytes accessed per row activation
system.mem_ctrl.bytesPerActivate::128-255          578     37.22%     76.05% # Bytes accessed per row activation
system.mem_ctrl.bytesPerActivate::256-383          204     13.14%     89.18% # Bytes accessed per row activation
system.mem_ctrl.bytesPerActivate::384-511           71      4.57%     93.75% # Bytes accessed per row activation
system.mem_ctrl.bytesPerActivate::512-639           26      1.67%     95.43% # Bytes accessed per row activation
system.mem_ctrl.bytesPerActivate::640-767           21      1.35%     96.78% # Bytes accessed per row activation
system.mem_ctrl.bytesPerActivate::768-895           16      1.03%     97.81% # Bytes accessed per row activation
system.mem_ctrl.bytesPerActivate::896-1023            9      0.58%     98.39% # Bytes accessed per row activation
system.mem_ctrl.bytesPerActivate::1024-1151           25      1.61%    100.00% # Bytes accessed per row activation
system.mem_ctrl.bytesPerActivate::total          1553                       # Bytes accessed per row activation
system.mem_ctrl.rdPerTurnAround::samples           10                       # Reads before turning the bus around for writes
system.mem_ctrl.rdPerTurnAround::mean      417.800000                       # Reads before turning the bus around for writes
system.mem_ctrl.rdPerTurnAround::gmean     134.512100                       # Reads before turning the bus around for writes
system.mem_ctrl.rdPerTurnAround::stdev     923.093447                       # Reads before turning the bus around for writes
system.mem_ctrl.rdPerTurnAround::0-127              7     70.00%     70.00% # Reads before turning the bus around for writes
system.mem_ctrl.rdPerTurnAround::128-255            1     10.00%     80.00% # Reads before turning the bus around for writes
system.mem_ctrl.rdPerTurnAround::384-511            1     10.00%     90.00% # Reads before turning the bus around for writes
system.mem_ctrl.rdPerTurnAround::2944-3071            1     10.00%    100.00% # Reads before turning the bus around for writes
system.mem_ctrl.rdPerTurnAround::total             10                       # Reads before turning the bus around for writes
system.mem_ctrl.wrPerTurnAround::samples           10                       # Writes before turning the bus around for reads
system.mem_ctrl.wrPerTurnAround::mean       17.800000                       # Writes before turning the bus around for reads
system.mem_ctrl.wrPerTurnAround::gmean      17.789234                       # Writes before turning the bus around for reads
system.mem_ctrl.wrPerTurnAround::stdev       0.632456                       # Writes before turning the bus around for reads
system.mem_ctrl.wrPerTurnAround::16                 1     10.00%     10.00% # Writes before turning the bus around for reads
system.mem_ctrl.wrPerTurnAround::18                 9     90.00%    100.00% # Writes before turning the bus around for reads
system.mem_ctrl.wrPerTurnAround::total             10                       # Writes before turning the bus around for reads
system.mem_ctrl.bytesReadDRAM                  273408                       # Total number of bytes read from DRAM
system.mem_ctrl.bytesReadWrQ                     4672                       # Total number of bytes read from write queue
system.mem_ctrl.bytesWritten                    11392                       # Total number of bytes written to DRAM
system.mem_ctrl.bytesReadSys                   278080                       # Total read bytes from the system interface side
system.mem_ctrl.bytesWrittenSys                 17856                       # Total written bytes from the system interface side
system.mem_ctrl.avgRdBW                         68.79                       # Average DRAM read bandwidth in MiByte/s
system.mem_ctrl.avgWrBW                          2.87                       # Average achieved write bandwidth in MiByte/s
system.mem_ctrl.avgRdBWSys                      69.96                       # Average system read bandwidth in MiByte/s
system.mem_ctrl.avgWrBWSys                       4.49                       # Average system write bandwidth in MiByte/s
system.mem_ctrl.peakBW                       12800.00                       # Theoretical peak bandwidth in MiByte/s
system.mem_ctrl.busUtil                          0.56                       # Data bus utilization in percentage
system.mem_ctrl.busUtilRead                      0.54                       # Data bus utilization in percentage for reads
system.mem_ctrl.busUtilWrite                     0.02                       # Data bus utilization in percentage for writes
system.mem_ctrl.totGap                     3971298000                       # Total gap between requests
system.mem_ctrl.avgGap                      858844.72                       # Average gap between requests
system.mem_ctrl.masterReadBytes::.cpu.inst       121664                       # Per-master bytes read from memory
system.mem_ctrl.masterReadBytes::.cpu.data       151744                       # Per-master bytes read from memory
system.mem_ctrl.masterWriteBytes::.writebacks        11392                       # Per-master bytes write to memory
system.mem_ctrl.masterReadRate::.cpu.inst 30609159.098491027951                       # Per-master bytes read from memory rate (Bytes/sec)
system.mem_ctrl.masterReadRate::.cpu.data 38176915.424788124859                       # Per-master bytes read from memory rate (Bytes/sec)
system.mem_ctrl.masterWriteRate::.writebacks 2866086.438469964545                       # Per-master bytes write to memory rate (Bytes/sec)
system.mem_ctrl.masterReadAccesses::.cpu.inst         1901                       # Per-master read serviced memory accesses
system.mem_ctrl.masterReadAccesses::.cpu.data         2444                       # Per-master read serviced memory accesses
system.mem_ctrl.masterWriteAccesses::.writebacks          279                       # Per-master write serviced memory accesses
system.mem_ctrl.masterReadTotalLat::.cpu.inst     51133000                       # Per-master read total memory access latency
system.mem_ctrl.masterReadTotalLat::.cpu.data     66830000                       # Per-master read total memory access latency
system.mem_ctrl.masterWriteTotalLat::.writebacks  59821633500                       # Per-master write total memory access latency
system.mem_ctrl.masterReadAvgLat::.cpu.inst     26897.95                       # Per-master read average memory access latency
system.mem_ctrl.masterReadAvgLat::.cpu.data     27344.52                       # Per-master read average memory access latency
system.mem_ctrl.masterWriteAvgLat::.writebacks 214414456.99                       # Per-master write average memory access latency
system.mem_ctrl.pageHitRate                     64.74                       # Row buffer hit rate, read and write combined
system.mem_ctrl.rank1.actEnergy               6211800                       # Energy for activate commands per rank (pJ)
system.mem_ctrl.rank1.preEnergy               3297855                       # Energy for precharge commands per rank (pJ)
system.mem_ctrl.rank1.readEnergy             15658020                       # Energy for read commands per rank (pJ)
system.mem_ctrl.rank1.writeEnergy              287100                       # Energy for write commands per rank (pJ)
system.mem_ctrl.rank1.refreshEnergy      313466400.000000                       # Energy for refresh commands per rank (pJ)
system.mem_ctrl.rank1.actBackEnergy        1195493490                       # Energy for active background per rank (pJ)
system.mem_ctrl.rank1.preBackEnergy         519576000                       # Energy for precharge background per rank (pJ)
system.mem_ctrl.rank1.actPowerDownEnergy            0                       # Energy for active power-down per rank (pJ)
system.mem_ctrl.rank1.prePowerDownEnergy            0                       # Energy for precharge power-down per rank (pJ)
system.mem_ctrl.rank1.selfRefreshEnergy             0                       # Energy for self refresh per rank (pJ)
system.mem_ctrl.rank1.totalEnergy          2053990665                       # Total energy per rank (pJ)
system.mem_ctrl.rank1.averagePower         516.758672                       # Core power per rank (mW)
system.mem_ctrl.rank1.totalIdleTime                 0                       # Total Idle time Per DRAM Rank
system.mem_ctrl.rank1.memoryStateTime::IDLE   1339596250                       # Time in different power states
system.mem_ctrl.rank1.memoryStateTime::REF    132600000                       # Time in different power states
system.mem_ctrl.rank1.memoryStateTime::SREF            0                       # Time in different power states
system.mem_ctrl.rank1.memoryStateTime::PRE_PDN            0                       # Time in different power states
system.mem_ctrl.rank1.memoryStateTime::ACT   2502561750                       # Time in different power states
system.mem_ctrl.rank1.memoryStateTime::ACT_PDN            0                       # Time in different power states
system.mem_ctrl.rank0.actEnergy               4883760                       # Energy for activate commands per rank (pJ)
system.mem_ctrl.rank0.preEnergy               2595780                       # Energy for precharge commands per rank (pJ)
system.mem_ctrl.rank0.readEnergy             14844060                       # Energy for read commands per rank (pJ)
system.mem_ctrl.rank0.writeEnergy              642060                       # Energy for write commands per rank (pJ)
system.mem_ctrl.rank0.refreshEnergy      313466400.000000                       # Energy for refresh commands per rank (pJ)
system.mem_ctrl.rank0.actBackEnergy         688385580                       # Energy for active background per rank (pJ)
system.mem_ctrl.rank0.preBackEnergy         946614240                       # Energy for precharge background per rank (pJ)
system.mem_ctrl.rank0.actPowerDownEnergy            0                       # Energy for active power-down per rank (pJ)
system.mem_ctrl.rank0.prePowerDownEnergy            0                       # Energy for precharge power-down per rank (pJ)
system.mem_ctrl.rank0.selfRefreshEnergy             0                       # Energy for self refresh per rank (pJ)
system.mem_ctrl.rank0.totalEnergy          1971431880                       # Total energy per rank (pJ)
system.mem_ctrl.rank0.averagePower         495.987902                       # Core power per rank (mW)
system.mem_ctrl.rank0.totalIdleTime                 0                       # Total Idle time Per DRAM Rank
system.mem_ctrl.rank0.memoryStateTime::IDLE   2454117750                       # Time in different power states
system.mem_ctrl.rank0.memoryStateTime::REF    132600000                       # Time in different power states
system.mem_ctrl.rank0.memoryStateTime::SREF            0                       # Time in different power states
system.mem_ctrl.rank0.memoryStateTime::PRE_PDN            0                       # Time in different power states
system.mem_ctrl.rank0.memoryStateTime::ACT   1388040250                       # Time in different power states
system.mem_ctrl.rank0.memoryStateTime::ACT_PDN            0                       # Time in different power states
system.mem_ctrl.power_state.pwrStateResidencyTicks::UNDEFINED   3974758000                       # Cumulative time (in ticks) in various power states
system.cache_medium.blocked_cycles::no_mshrs            0                       # number of cycles access was blocked
system.cache_medium.blocked_cycles::no_targets            0                       # number of cycles access was blocked
system.cache_medium.blocked::no_mshrs               0                       # number of cycles access was blocked
system.cache_medium.blocked::no_targets             0                       # number of cycles access was blocked
system.cache_medium.avg_blocked_cycles::no_mshrs          nan                       # average number of cycles each access was blocked
system.cache_medium.avg_blocked_cycles::no_targets          nan                       # average number of cycles each access was blocked
system.cache_medium.replacements                    0                       # number of replacements
system.cache_medium.power_state.pwrStateResidencyTicks::UNDEFINED   3974758000                       # Cumulative time (in ticks) in various power states
system.cache_medium.tags.tagsinuse                  0                       # Cycle average of tags in use
system.cache_medium.tags.total_refs                 0                       # Total number of references to valid blocks.
system.cache_medium.tags.sampled_refs               0                       # Sample count of references to valid blocks.
system.cache_medium.tags.avg_refs                 nan                       # Average number of references to valid blocks.
system.cache_medium.tags.warmup_cycle               0                       # Cycle when the warmup percentage was hit.
system.cache_medium.tags.tag_accesses               0                       # Number of tag accesses
system.cache_medium.tags.data_accesses              0                       # Number of data accesses
system.cache_medium.tags.power_state.pwrStateResidencyTicks::UNDEFINED   3974758000                       # Cumulative time (in ticks) in various power states
system.clk_domain.clock                          1000                       # Clock period in ticks
system.clk_domain.voltage_domain.voltage            1                       # Voltage in Volts
system.dcache.demand_hits::.cpu.data           333963                       # number of demand (read+write) hits
system.dcache.demand_hits::total               333963                       # number of demand (read+write) hits
system.dcache.overall_hits::.cpu.data          333963                       # number of overall hits
system.dcache.overall_hits::total              333963                       # number of overall hits
system.dcache.demand_misses::.cpu.data           7127                       # number of demand (read+write) misses
system.dcache.demand_misses::total               7127                       # number of demand (read+write) misses
system.dcache.overall_misses::.cpu.data          7127                       # number of overall misses
system.dcache.overall_misses::total              7127                       # number of overall misses
system.dcache.demand_miss_latency::.cpu.data    265578000                       # number of demand (read+write) miss cycles
system.dcache.demand_miss_latency::total    265578000                       # number of demand (read+write) miss cycles
system.dcache.overall_miss_latency::.cpu.data    265578000                       # number of overall miss cycles
system.dcache.overall_miss_latency::total    265578000                       # number of overall miss cycles
system.dcache.demand_accesses::.cpu.data       341090                       # number of demand (read+write) accesses
system.dcache.demand_accesses::total           341090                       # number of demand (read+write) accesses
system.dcache.overall_accesses::.cpu.data       341090                       # number of overall (read+write) accesses
system.dcache.overall_accesses::total          341090                       # number of overall (read+write) accesses
system.dcache.demand_miss_rate::.cpu.data     0.020895                       # miss rate for demand accesses
system.dcache.demand_miss_rate::total        0.020895                       # miss rate for demand accesses
system.dcache.overall_miss_rate::.cpu.data     0.020895                       # miss rate for overall accesses
system.dcache.overall_miss_rate::total       0.020895                       # miss rate for overall accesses
system.dcache.demand_avg_miss_latency::.cpu.data 37263.645293                       # average overall miss latency
system.dcache.demand_avg_miss_latency::total 37263.645293                       # average overall miss latency
system.dcache.overall_avg_miss_latency::.cpu.data 37263.645293                       # average overall miss latency
system.dcache.overall_avg_miss_latency::total 37263.645293                       # average overall miss latency
system.dcache.blocked_cycles::no_mshrs              0                       # number of cycles access was blocked
system.dcache.blocked_cycles::no_targets            0                       # number of cycles access was blocked
system.dcache.blocked::no_mshrs                     0                       # number of cycles access was blocked
system.dcache.blocked::no_targets                   0                       # number of cycles access was blocked
system.dcache.avg_blocked_cycles::no_mshrs          nan                       # average number of cycles each access was blocked
system.dcache.avg_blocked_cycles::no_targets          nan                       # average number of cycles each access was blocked
system.dcache.writebacks::.writebacks            3963                       # number of writebacks
system.dcache.writebacks::total                  3963                       # number of writebacks
system.dcache.demand_mshr_misses::.cpu.data         7127                       # number of demand (read+write) MSHR misses
system.dcache.demand_mshr_misses::total          7127                       # number of demand (read+write) MSHR misses
system.dcache.overall_mshr_misses::.cpu.data         7127                       # number of overall MSHR misses
system.dcache.overall_mshr_misses::total         7127                       # number of overall MSHR misses
system.dcache.demand_mshr_miss_latency::.cpu.data    251324000                       # number of demand (read+write) MSHR miss cycles
[...]
system.dcache.tags.age_task_id_blocks_1024::0           21                       # Occupied blocks per task id
system.dcache.tags.age_task_id_blocks_1024::1          159                       # Occupied blocks per task id
system.dcache.tags.age_task_id_blocks_1024::2           76                       # Occupied blocks per task id
system.dcache.tags.occ_task_id_percent::1024            1                       # Percentage of cache occupancy per task id
system.dcache.tags.tag_accesses               2090492                       # Number of tag accesses
system.dcache.tags.data_accesses              2090492                       # Number of data accesses
system.dcache.tags.power_state.pwrStateResidencyTicks::UNDEFINED  24811979000                       # Cumulative time (in ticks) in various power states
system.cache_large.blocked_cycles::no_mshrs            0                       # number of cycles access was blocked
system.cache_large.blocked_cycles::no_targets            0                       # number of cycles access was blocked
system.cache_large.blocked::no_mshrs                0                       # number of cycles access was blocked
system.cache_large.blocked::no_targets              0                       # number of cycles access was blocked
system.cache_large.avg_blocked_cycles::no_mshrs          nan                       # average number of cycles each access was blocked
system.cache_large.avg_blocked_cycles::no_targets          nan                       # average number of cycles each access was blocked
system.cache_large.replacements                     0                       # number of replacements
system.cache_large.power_state.pwrStateResidencyTicks::UNDEFINED  24811979000                       # Cumulative time (in ticks) in various power states
system.cache_large.tags.tagsinuse                   0                       # Cycle average of tags in use
system.cache_large.tags.total_refs                  0                       # Total number of references to valid blocks.
system.cache_large.tags.sampled_refs                0                       # Sample count of references to valid blocks.
system.cache_large.tags.avg_refs                  nan                       # Average number of references to valid blocks.
system.cache_large.tags.warmup_cycle                0                       # Cycle when the warmup percentage was hit.
system.cache_large.tags.tag_accesses                0                       # Number of tag accesses
system.cache_large.tags.data_accesses               0                       # Number of data accesses
system.cache_large.tags.power_state.pwrStateResidencyTicks::UNDEFINED  24811979000                       # Cumulative time (in ticks) in various power states
system.l2cache.demand_hits::.cpu.inst            6903                       # number of demand (read+write) hits
system.l2cache.demand_hits::.cpu.data           12352                       # number of demand (read+write) hits
system.l2cache.demand_hits::total               19255                       # number of demand (read+write) hits
system.l2cache.overall_hits::.cpu.inst           6903                       # number of overall hits
system.l2cache.overall_hits::.cpu.data          12352                       # number of overall hits
system.l2cache.overall_hits::total              19255                       # number of overall hits
system.l2cache.demand_misses::.cpu.inst         22272                       # number of demand (read+write) misses
system.l2cache.demand_misses::.cpu.data         43084                       # number of demand (read+write) misses
system.l2cache.demand_misses::total             65356                       # number of demand (read+write) misses
system.l2cache.overall_misses::.cpu.inst        22272                       # number of overall misses
system.l2cache.overall_misses::.cpu.data        43084                       # number of overall misses
system.l2cache.overall_misses::total            65356                       # number of overall misses
system.l2cache.demand_miss_latency::.cpu.inst    449938000                       # number of demand (read+write) miss cycles
system.l2cache.demand_miss_latency::.cpu.data   1791886000                       # number of demand (read+write) miss cycles
system.l2cache.demand_miss_latency::total   2241824000                       # number of demand (read+write) miss cycles
system.l2cache.overall_miss_latency::.cpu.inst    449938000                       # number of overall miss cycles
system.l2cache.overall_miss_latency::.cpu.data   1791886000                       # number of overall miss cycles
system.l2cache.overall_miss_latency::total   2241824000                       # number of overall miss cycles
system.l2cache.demand_accesses::.cpu.inst        29175                       # number of demand (read+write) accesses
system.l2cache.demand_accesses::.cpu.data        55436                       # number of demand (read+write) accesses
system.l2cache.demand_accesses::total           84611                       # number of demand (read+write) accesses
system.l2cache.overall_accesses::.cpu.inst        29175                       # number of overall (read+write) accesses
system.l2cache.overall_accesses::.cpu.data        55436                       # number of overall (read+write) accesses
system.l2cache.overall_accesses::total          84611                       # number of overall (read+write) accesses
system.l2cache.demand_miss_rate::.cpu.inst     0.763393                       # miss rate for demand accesses
system.l2cache.demand_miss_rate::.cpu.data     0.777185                       # miss rate for demand accesses
system.l2cache.demand_miss_rate::total       0.772429                       # miss rate for demand accesses
system.l2cache.overall_miss_rate::.cpu.inst     0.763393                       # miss rate for overall accesses
system.l2cache.overall_miss_rate::.cpu.data     0.777185                       # miss rate for overall accesses
system.l2cache.overall_miss_rate::total      0.772429                       # miss rate for overall accesses
system.l2cache.demand_avg_miss_latency::.cpu.inst 20201.957615                       # average overall miss latency
system.l2cache.demand_avg_miss_latency::.cpu.data 41590.520843                       # average overall miss latency
system.l2cache.demand_avg_miss_latency::total 34301.732052                       # average overall miss latency
system.l2cache.overall_avg_miss_latency::.cpu.inst 20201.957615                       # average overall miss latency
system.l2cache.overall_avg_miss_latency::.cpu.data 41590.520843                       # average overall miss latency
system.l2cache.overall_avg_miss_latency::total 34301.732052                       # average overall miss latency
system.l2cache.blocked_cycles::no_mshrs             0                       # number of cycles access was blocked
system.l2cache.blocked_cycles::no_targets            0                       # number of cycles access was blocked
system.l2cache.blocked::no_mshrs                    0                       # number of cycles access was blocked
system.l2cache.blocked::no_targets                  0                       # number of cycles access was blocked
system.l2cache.avg_blocked_cycles::no_mshrs          nan                       # average number of cycles each access was blocked
system.l2cache.avg_blocked_cycles::no_targets          nan                       # average number of cycles each access was blocked
system.l2cache.writebacks::.writebacks          11938                       # number of writebacks
system.l2cache.writebacks::total                11938                       # number of writebacks
system.l2cache.demand_mshr_misses::.cpu.inst        22272                       # number of demand (read+write) MSHR misses
system.l2cache.demand_mshr_misses::.cpu.data        43084                       # number of demand (read+write) MSHR misses
system.l2cache.demand_mshr_misses::total        65356                       # number of demand (read+write) MSHR misses
system.l2cache.overall_mshr_misses::.cpu.inst        22272                       # number of overall MSHR misses
system.l2cache.overall_mshr_misses::.cpu.data        43084                       # number of overall MSHR misses
system.l2cache.overall_mshr_misses::total        65356                       # number of overall MSHR misses
system.l2cache.demand_mshr_miss_latency::.cpu.inst    405394000                       # number of demand (read+write) MSHR miss cycles
system.l2cache.demand_mshr_miss_latency::.cpu.data   1705718000                       # number of demand (read+write) MSHR miss cycles
system.l2cache.demand_mshr_miss_latency::total   2111112000                       # number of demand (read+write) MSHR miss cycles
system.l2cache.overall_mshr_miss_latency::.cpu.inst    405394000                       # number of overall MSHR miss cycles
system.l2cache.overall_mshr_miss_latency::.cpu.data   1705718000                       # number of overall MSHR miss cycles
system.l2cache.overall_mshr_miss_latency::total   2111112000                       # number of overall MSHR miss cycles
system.l2cache.demand_mshr_miss_rate::.cpu.inst     0.763393                       # mshr miss rate for demand accesses
system.l2cache.demand_mshr_miss_rate::.cpu.data     0.777185                       # mshr miss rate for demand accesses
system.l2cache.demand_mshr_miss_rate::total     0.772429                       # mshr miss rate for demand accesses
system.l2cache.overall_mshr_miss_rate::.cpu.inst     0.763393                       # mshr miss rate for overall accesses
system.l2cache.overall_mshr_miss_rate::.cpu.data     0.777185                       # mshr miss rate for overall accesses
system.l2cache.overall_mshr_miss_rate::total     0.772429                       # mshr miss rate for overall accesses
system.l2cache.demand_avg_mshr_miss_latency::.cpu.inst 18201.957615                       # average overall mshr miss latency
system.l2cache.demand_avg_mshr_miss_latency::.cpu.data 39590.520843                       # average overall mshr miss latency
system.l2cache.demand_avg_mshr_miss_latency::total 32301.732052                       # average overall mshr miss latency
system.l2cache.overall_avg_mshr_miss_latency::.cpu.inst 18201.957615                       # average overall mshr miss latency
system.l2cache.overall_avg_mshr_miss_latency::.cpu.data 39590.520843                       # average overall mshr miss latency
system.l2cache.overall_avg_mshr_miss_latency::total 32301.732052                       # average overall mshr miss latency
system.l2cache.replacements                     73543                       # number of replacements
system.l2cache.ReadReq_hits::.cpu.inst           6903                       # number of ReadReq hits
system.l2cache.ReadReq_hits::.cpu.data          12352                       # number of ReadReq hits
system.l2cache.ReadReq_hits::total              19255                       # number of ReadReq hits
system.l2cache.ReadReq_misses::.cpu.inst        22272                       # number of ReadReq misses
system.l2cache.ReadReq_misses::.cpu.data        43084                       # number of ReadReq misses
system.l2cache.ReadReq_misses::total            65356                       # number of ReadReq misses
system.l2cache.ReadReq_miss_latency::.cpu.inst    449938000                       # number of ReadReq miss cycles
system.l2cache.ReadReq_miss_latency::.cpu.data   1791886000                       # number of ReadReq miss cycles
system.l2cache.ReadReq_miss_latency::total   2241824000                       # number of ReadReq miss cycles
system.l2cache.ReadReq_accesses::.cpu.inst        29175                       # number of ReadReq accesses(hits+misses)
system.l2cache.ReadReq_accesses::.cpu.data        55436                       # number of ReadReq accesses(hits+misses)
system.l2cache.ReadReq_accesses::total          84611                       # number of ReadReq accesses(hits+misses)
system.l2cache.ReadReq_miss_rate::.cpu.inst     0.763393                       # miss rate for ReadReq accesses
system.l2cache.ReadReq_miss_rate::.cpu.data     0.777185                       # miss rate for ReadReq accesses
system.l2cache.ReadReq_miss_rate::total      0.772429                       # miss rate for ReadReq accesses
system.l2cache.ReadReq_avg_miss_latency::.cpu.inst 20201.957615                       # average ReadReq miss latency
system.l2cache.ReadReq_avg_miss_latency::.cpu.data 41590.520843                       # average ReadReq miss latency
system.l2cache.ReadReq_avg_miss_latency::total 34301.732052                       # average ReadReq miss latency
system.l2cache.ReadReq_mshr_misses::.cpu.inst        22272                       # number of ReadReq MSHR misses
system.l2cache.ReadReq_mshr_misses::.cpu.data        43084                       # number of ReadReq MSHR misses
system.l2cache.ReadReq_mshr_misses::total        65356                       # number of ReadReq MSHR misses
system.l2cache.ReadReq_mshr_miss_latency::.cpu.inst    405394000                       # number of ReadReq MSHR miss cycles
system.l2cache.ReadReq_mshr_miss_latency::.cpu.data   1705718000                       # number of ReadReq MSHR miss cycles
system.l2cache.ReadReq_mshr_miss_latency::total   2111112000                       # number of ReadReq MSHR miss cycles
system.l2cache.ReadReq_mshr_miss_rate::.cpu.inst     0.763393                       # mshr miss rate for ReadReq accesses
system.l2cache.ReadReq_mshr_miss_rate::.cpu.data     0.777185                       # mshr miss rate for ReadReq accesses
system.l2cache.ReadReq_mshr_miss_rate::total     0.772429                       # mshr miss rate for ReadReq accesses
system.l2cache.ReadReq_avg_mshr_miss_latency::.cpu.inst 18201.957615                       # average ReadReq mshr miss latency
system.l2cache.ReadReq_avg_mshr_miss_latency::.cpu.data 39590.520843                       # average ReadReq mshr miss latency
system.l2cache.ReadReq_avg_mshr_miss_latency::total 32301.732052                       # average ReadReq mshr miss latency
system.l2cache.WritebackDirty_hits::.writebacks        15469                       # number of WritebackDirty hits
system.l2cache.WritebackDirty_hits::total        15469                       # number of WritebackDirty hits
system.l2cache.WritebackDirty_accesses::.writebacks        15469                       # number of WritebackDirty accesses(hits+misses)
system.l2cache.WritebackDirty_accesses::total        15469                       # number of WritebackDirty accesses(hits+misses)
system.l2cache.power_state.pwrStateResidencyTicks::UNDEFINED  24811979000                       # Cumulative time (in ticks) in various power states
system.l2cache.tags.tagsinuse              510.032334                       # Cycle average of tags in use
system.l2cache.tags.total_refs                 100080                       # Total number of references to valid blocks.
system.l2cache.tags.sampled_refs                74055                       # Sample count of references to valid blocks.
system.l2cache.tags.avg_refs                 1.351428                       # Average number of references to valid blocks.
system.l2cache.tags.warmup_cycle                78000                       # Cycle when the warmup percentage was hit.
system.l2cache.tags.occ_blocks::.writebacks    68.136957                       # Average occupied blocks per requestor
system.l2cache.tags.occ_blocks::.cpu.inst    50.986138                       # Average occupied blocks per requestor
system.l2cache.tags.occ_blocks::.cpu.data   390.909240                       # Average occupied blocks per requestor
system.l2cache.tags.occ_percent::.writebacks     0.133080                       # Average percentage of cache occupancy
system.l2cache.tags.occ_percent::.cpu.inst     0.099582                       # Average percentage of cache occupancy
system.l2cache.tags.occ_percent::.cpu.data     0.763495                       # Average percentage of cache occupancy
system.l2cache.tags.occ_percent::total       0.996157                       # Average percentage of cache occupancy
system.l2cache.tags.occ_task_id_blocks::1024          512                       # Occupied blocks per task id
system.l2cache.tags.age_task_id_blocks_1024::0           21                       # Occupied blocks per task id
system.l2cache.tags.age_task_id_blocks_1024::1          197                       # Occupied blocks per task id
system.l2cache.tags.age_task_id_blocks_1024::2          294                       # Occupied blocks per task id
system.l2cache.tags.occ_task_id_percent::1024            1                       # Percentage of cache occupancy per task id
system.l2cache.tags.tag_accesses               174135                       # Number of tag accesses
system.l2cache.tags.data_accesses              174135                       # Number of data accesses
system.l2cache.tags.power_state.pwrStateResidencyTicks::UNDEFINED  24811979000                       # Cumulative time (in ticks) in various power states
system.l2bar.trans_dist::ReadReq                84611                       # Transaction distribution
system.l2bar.trans_dist::ReadResp               84611                       # Transaction distribution
system.l2bar.trans_dist::WritebackDirty         15469                       # Transaction distribution
system.l2bar.pkt_count_system.dcache.mem_side::system.l2cache.cpu_side       126341                       # Packet count per connected master and slave (bytes)
system.l2bar.pkt_count_system.icache.mem_side::system.l2cache.cpu_side        58350                       # Packet count per connected master and slave (bytes)
system.l2bar.pkt_count::total                  184691                       # Packet count per connected master and slave (bytes)
system.l2bar.pkt_size_system.dcache.mem_side::system.l2cache.cpu_side      4537920                       # Cumulative packet size per connected master and slave (bytes)
system.l2bar.pkt_size_system.icache.mem_side::system.l2cache.cpu_side      1867200                       # Cumulative packet size per connected master and slave (bytes)
system.l2bar.pkt_size::total                  6405120                       # Cumulative packet size per connected master and slave (bytes)
system.l2bar.respLayer1.occupancy           145875000                       # Layer occupancy (ticks)
system.l2bar.respLayer1.utilization               0.6                       # Layer utilization (%)
system.l2bar.reqLayer0.occupancy            161956000                       # Layer occupancy (ticks)
system.l2bar.reqLayer0.utilization                0.7                       # Layer utilization (%)
system.l2bar.respLayer0.occupancy           277180000                       # Layer occupancy (ticks)
system.l2bar.respLayer0.utilization               1.1                       # Layer utilization (%)
system.l2bar.power_state.pwrStateResidencyTicks::UNDEFINED  24811979000                       # Cumulative time (in ticks) in various power states
system.cpu.dtb.walker.power_state.pwrStateResidencyTicks::UNDEFINED  24811979000                       # Cumulative time (in ticks) in various power states
system.cpu.interrupts.clk_domain.clock          16000                       # Clock period in ticks
system.cpu.itb.walker.power_state.pwrStateResidencyTicks::UNDEFINED  24811979000                       # Cumulative time (in ticks) in various power states
system.cpu.power_state.numTransitions               1                       # Number of power state transitions
system.cpu.power_state.pwrStateResidencyTicks::ON  24811979000                       # Cumulative time (in ticks) in various power states

---------- End Simulation Statistics   ----------
