
---------- Begin Simulation Statistics ----------
final_tick                                 3628009000                       # Number of ticks from beginning of simulation (restored from checkpoints and never reset)
host_inst_rate                                  87672                       # Simulator instruction rate (inst/s)
host_mem_usage                               34212840                       # Number of bytes of host memory used
host_op_rate                                   182846                       # Simulator op (including micro ops) rate (op/s)
host_seconds                                    11.41                       # Real time elapsed on the host
host_tick_rate                              317954669                       # Simulator tick rate (ticks/s)
sim_freq                                 1000000000000                       # Frequency of simulated ticks
sim_insts                                     1000353                       # Number of instructions simulated
sim_ops                                       2086346                       # Number of ops (including micro ops) simulated
sim_seconds                                  0.003628                       # Number of seconds simulated
sim_ticks                                  3628009000                       # Number of ticks simulated
system.cpu.Branches                            130211                       # Number of branches fetched
system.cpu.committedInsts                     1000353                       # Number of instructions committed
system.cpu.committedOps                       2086346                       # Number of ops (including micro ops) committed
system.cpu.dtb.rdAccesses                      191631                       # TLB accesses on read requests
system.cpu.dtb.rdMisses                            33                       # TLB misses on read requests
system.cpu.dtb.wrAccesses                       52556                       # TLB accesses on write requests
system.cpu.dtb.wrMisses                            66                       # TLB misses on write requests
system.cpu.idle_fraction                            0                       # Percentage of idle cycles
system.cpu.itb.rdAccesses                           0                       # TLB accesses on read requests
system.cpu.itb.rdMisses                             0                       # TLB misses on read requests
system.cpu.itb.wrAccesses                     1430895                       # TLB accesses on write requests
system.cpu.itb.wrMisses                            95                       # TLB misses on write requests
system.cpu.not_idle_fraction                        1                       # Percentage of non-idle cycles
system.cpu.numCycles                          3627998                       # number of cpu cycles simulated
system.cpu.numWorkItemsCompleted                    0                       # number of work items this cpu completed
system.cpu.numWorkItemsStarted                      0                       # number of work items this cpu started
system.cpu.num_busy_cycles                    3627998                       # Number of busy cycles
system.cpu.num_cc_register_reads              1162587                       # number of times the CC registers were read
system.cpu.num_cc_register_writes              616151                       # number of times the CC registers were written
system.cpu.num_conditional_control_insts       103996                       # number of instructions that are conditional controls
system.cpu.num_fp_alu_accesses                 566242                       # Number of float alu accesses
system.cpu.num_fp_insts                        566242                       # number of float instructions
system.cpu.num_fp_register_reads               986117                       # number of times the floating registers were read
system.cpu.num_fp_register_writes              538730                       # number of times the floating registers were written
system.cpu.num_func_calls                       16419                       # number of times a function call or return occured
system.cpu.num_idle_cycles                          0                       # Number of idle cycles
system.cpu.num_int_alu_accesses               1647213                       # Number of integer alu accesses
system.cpu.num_int_insts                      1647213                       # number of integer instructions
system.cpu.num_int_register_reads             3322792                       # number of times the integer registers were read
system.cpu.num_int_register_writes            1547449                       # number of times the integer registers were written
system.cpu.num_load_insts                      191625                       # Number of load instructions
system.cpu.num_mem_refs                        244178                       # number of memory refs
system.cpu.num_store_insts                      52553                       # Number of store instructions
system.cpu.num_vec_alu_accesses                     0                       # Number of vector alu accesses
system.cpu.num_vec_insts                            0                       # number of vector instructions
system.cpu.num_vec_register_reads                   0                       # number of times the vector registers were read
system.cpu.num_vec_register_writes                  0                       # number of times the vector registers were written
system.cpu.op_class::No_OpClass                 18760      0.90%      0.90% # Class of executed instruction
system.cpu.op_class::IntAlu                   1369973     65.66%     66.56% # Class of executed instruction
system.cpu.op_class::IntMult                     1361      0.07%     66.63% # Class of executed instruction
system.cpu.op_class::IntDiv                     95123      4.56%     71.19% # Class of executed instruction
system.cpu.op_class::FloatAdd                   51626      2.47%     73.66% # Class of executed instruction
system.cpu.op_class::FloatCmp                       0      0.00%     73.66% # Class of executed instruction
system.cpu.op_class::FloatCvt                       0      0.00%     73.66% # Class of executed instruction
system.cpu.op_class::FloatMult                      0      0.00%     73.66% # Class of executed instruction
system.cpu.op_class::FloatMultAcc                   0      0.00%     73.66% # Class of executed instruction
system.cpu.op_class::FloatDiv                       0      0.00%     73.66% # Class of executed instruction
system.cpu.op_class::FloatMisc                      0      0.00%     73.66% # Class of executed instruction
system.cpu.op_class::FloatSqrt                      0      0.00%     73.66% # Class of executed instruction
system.cpu.op_class::SimdAdd                      916      0.04%     73.70% # Class of executed instruction
system.cpu.op_class::SimdAddAcc                     0      0.00%     73.70% # Class of executed instruction
system.cpu.op_class::SimdAlu                    30580      1.47%     75.17% # Class of executed instruction
system.cpu.op_class::SimdCmp                        0      0.00%     75.17% # Class of executed instruction
system.cpu.op_class::SimdCvt                     2058      0.10%     75.27% # Class of executed instruction
system.cpu.op_class::SimdMisc                   37694      1.81%     77.08% # Class of executed instruction
system.cpu.op_class::SimdMult                       0      0.00%     77.08% # Class of executed instruction
system.cpu.op_class::SimdMultAcc                    0      0.00%     77.08% # Class of executed instruction
system.cpu.op_class::SimdShift                    592      0.03%     77.10% # Class of executed instruction
system.cpu.op_class::SimdShiftAcc                   0      0.00%     77.10% # Class of executed instruction
system.cpu.op_class::SimdDiv                        0      0.00%     77.10% # Class of executed instruction
system.cpu.op_class::SimdSqrt                       0      0.00%     77.10% # Class of executed instruction
system.cpu.op_class::SimdFloatAdd              109306      5.24%     82.34% # Class of executed instruction
system.cpu.op_class::SimdFloatAlu                   0      0.00%     82.34% # Class of executed instruction
system.cpu.op_class::SimdFloatCmp                   0      0.00%     82.34% # Class of executed instruction
system.cpu.op_class::SimdFloatCvt               29146      1.40%     83.74% # Class of executed instruction
system.cpu.op_class::SimdFloatDiv               14524      0.70%     84.44% # Class of executed instruction
system.cpu.op_class::SimdFloatMisc                  0      0.00%     84.44% # Class of executed instruction
system.cpu.op_class::SimdFloatMult              80538      3.86%     88.30% # Class of executed instruction
system.cpu.op_class::SimdFloatMultAcc               0      0.00%     88.30% # Class of executed instruction
system.cpu.op_class::SimdFloatSqrt                  0      0.00%     88.30% # Class of executed instruction
system.cpu.op_class::SimdReduceAdd                  0      0.00%     88.30% # Class of executed instruction
system.cpu.op_class::SimdReduceAlu                  0      0.00%     88.30% # Class of executed instruction
system.cpu.op_class::SimdReduceCmp                  0      0.00%     88.30% # Class of executed instruction
system.cpu.op_class::SimdFloatReduceAdd             0      0.00%     88.30% # Class of executed instruction
system.cpu.op_class::SimdFloatReduceCmp             0      0.00%     88.30% # Class of executed instruction
system.cpu.op_class::SimdAes                        0      0.00%     88.30% # Class of executed instruction
system.cpu.op_class::SimdAesMix                     0      0.00%     88.30% # Class of executed instruction
system.cpu.op_class::SimdSha1Hash                   0      0.00%     88.30% # Class of executed instruction
system.cpu.op_class::SimdSha1Hash2                  0      0.00%     88.30% # Class of executed instruction
system.cpu.op_class::SimdSha256Hash                 0      0.00%     88.30% # Class of executed instruction
system.cpu.op_class::SimdSha256Hash2                0      0.00%     88.30% # Class of executed instruction
system.cpu.op_class::SimdShaSigma2                  0      0.00%     88.30% # Class of executed instruction
system.cpu.op_class::SimdShaSigma3                  0      0.00%     88.30% # Class of executed instruction
system.cpu.op_class::SimdPredAlu                    0      0.00%     88.30% # Class of executed instruction
system.cpu.op_class::MemRead                    87429      4.19%     92.49% # Class of executed instruction
system.cpu.op_class::MemWrite                   47995      2.30%     94.79% # Class of executed instruction
system.cpu.op_class::FloatMemRead              104196      4.99%     99.78% # Class of executed instruction
system.cpu.op_class::FloatMemWrite               4558      0.22%    100.00% # Class of executed instruction
system.cpu.op_class::IprAccess                      0      0.00%    100.00% # Class of executed instruction
system.cpu.op_class::InstPrefetch                   0      0.00%    100.00% # Class of executed instruction
system.cpu.op_class::total                    2086375                       # Class of executed instruction
system.cpu.workload.numSyscalls                    52                       # Number of system calls
system.dynamic_cache.flushTicks                     0                       # Ticks taken to flush
system.dynamic_cache.numFlushes                     0                       # Number of Flushes Taken
system.cache_small.demand_hits::.cpu.inst          146                       # number of demand (read+write) hits
system.cache_small.demand_hits::.cpu.data          900                       # number of demand (read+write) hits
system.cache_small.demand_hits::total            1046                       # number of demand (read+write) hits
system.cache_small.overall_hits::.cpu.inst          146                       # number of overall hits
system.cache_small.overall_hits::.cpu.data          900                       # number of overall hits
system.cache_small.overall_hits::total           1046                       # number of overall hits
system.cache_small.demand_misses::.cpu.inst         1282                       # number of demand (read+write) misses
system.cache_small.demand_misses::.cpu.data         1871                       # number of demand (read+write) misses
system.cache_small.demand_misses::total          3153                       # number of demand (read+write) misses
system.cache_small.overall_misses::.cpu.inst         1282                       # number of overall misses
system.cache_small.overall_misses::.cpu.data         1871                       # number of overall misses
system.cache_small.overall_misses::total         3153                       # number of overall misses
system.cache_small.demand_miss_latency::.cpu.inst     76337000                       # number of demand (read+write) miss cycles
system.cache_small.demand_miss_latency::.cpu.data    112735000                       # number of demand (read+write) miss cycles
system.cache_small.demand_miss_latency::total    189072000                       # number of demand (read+write) miss cycles
system.cache_small.overall_miss_latency::.cpu.inst     76337000                       # number of overall miss cycles
system.cache_small.overall_miss_latency::.cpu.data    112735000                       # number of overall miss cycles
system.cache_small.overall_miss_latency::total    189072000                       # number of overall miss cycles
system.cache_small.demand_accesses::.cpu.inst         1428                       # number of demand (read+write) accesses
system.cache_small.demand_accesses::.cpu.data         2771                       # number of demand (read+write) accesses
system.cache_small.demand_accesses::total         4199                       # number of demand (read+write) accesses
system.cache_small.overall_accesses::.cpu.inst         1428                       # number of overall (read+write) accesses
system.cache_small.overall_accesses::.cpu.data         2771                       # number of overall (read+write) accesses
system.cache_small.overall_accesses::total         4199                       # number of overall (read+write) accesses
system.cache_small.demand_miss_rate::.cpu.inst     0.897759                       # miss rate for demand accesses
system.cache_small.demand_miss_rate::.cpu.data     0.675208                       # miss rate for demand accesses
system.cache_small.demand_miss_rate::total     0.750893                       # miss rate for demand accesses
system.cache_small.overall_miss_rate::.cpu.inst     0.897759                       # miss rate for overall accesses
system.cache_small.overall_miss_rate::.cpu.data     0.675208                       # miss rate for overall accesses
system.cache_small.overall_miss_rate::total     0.750893                       # miss rate for overall accesses
system.cache_small.demand_avg_miss_latency::.cpu.inst 59545.241810                       # average overall miss latency
system.cache_small.demand_avg_miss_latency::.cpu.data 60253.874933                       # average overall miss latency
system.cache_small.demand_avg_miss_latency::total 59965.746908                       # average overall miss latency
system.cache_small.overall_avg_miss_latency::.cpu.inst 59545.241810                       # average overall miss latency
system.cache_small.overall_avg_miss_latency::.cpu.data 60253.874933                       # average overall miss latency
system.cache_small.overall_avg_miss_latency::total 59965.746908                       # average overall miss latency
system.cache_small.blocked_cycles::no_mshrs            0                       # number of cycles access was blocked
system.cache_small.blocked_cycles::no_targets            0                       # number of cycles access was blocked
system.cache_small.blocked::no_mshrs                0                       # number of cycles access was blocked
system.cache_small.blocked::no_targets              0                       # number of cycles access was blocked
system.cache_small.avg_blocked_cycles::no_mshrs          nan                       # average number of cycles each access was blocked
system.cache_small.avg_blocked_cycles::no_targets          nan                       # average number of cycles each access was blocked
system.cache_small.writebacks::.writebacks          257                       # number of writebacks
system.cache_small.writebacks::total              257                       # number of writebacks
system.cache_small.demand_mshr_misses::.cpu.inst         1282                       # number of demand (read+write) MSHR misses
system.cache_small.demand_mshr_misses::.cpu.data         1871                       # number of demand (read+write) MSHR misses
system.cache_small.demand_mshr_misses::total         3153                       # number of demand (read+write) MSHR misses
system.cache_small.overall_mshr_misses::.cpu.inst         1282                       # number of overall MSHR misses
system.cache_small.overall_mshr_misses::.cpu.data         1871                       # number of overall MSHR misses
system.cache_small.overall_mshr_misses::total         3153                       # number of overall MSHR misses
system.cache_small.demand_mshr_miss_latency::.cpu.inst     73773000                       # number of demand (read+write) MSHR miss cycles
system.cache_small.demand_mshr_miss_latency::.cpu.data    108993000                       # number of demand (read+write) MSHR miss cycles
system.cache_small.demand_mshr_miss_latency::total    182766000                       # number of demand (read+write) MSHR miss cycles
system.cache_small.overall_mshr_miss_latency::.cpu.inst     73773000                       # number of overall MSHR miss cycles
system.cache_small.overall_mshr_miss_latency::.cpu.data    108993000                       # number of overall MSHR miss cycles
system.cache_small.overall_mshr_miss_latency::total    182766000                       # number of overall MSHR miss cycles
system.cache_small.demand_mshr_miss_rate::.cpu.inst     0.897759                       # mshr miss rate for demand accesses
system.cache_small.demand_mshr_miss_rate::.cpu.data     0.675208                       # mshr miss rate for demand accesses
system.cache_small.demand_mshr_miss_rate::total     0.750893                       # mshr miss rate for demand accesses
system.cache_small.overall_mshr_miss_rate::.cpu.inst     0.897759                       # mshr miss rate for overall accesses
system.cache_small.overall_mshr_miss_rate::.cpu.data     0.675208                       # mshr miss rate for overall accesses
system.cache_small.overall_mshr_miss_rate::total     0.750893                       # mshr miss rate for overall accesses
system.cache_small.demand_avg_mshr_miss_latency::.cpu.inst 57545.241810                       # average overall mshr miss latency
system.cache_small.demand_avg_mshr_miss_latency::.cpu.data 58253.874933                       # average overall mshr miss latency
system.cache_small.demand_avg_mshr_miss_latency::total 57965.746908                       # average overall mshr miss latency
system.cache_small.overall_avg_mshr_miss_latency::.cpu.inst 57545.241810                       # average overall mshr miss latency
system.cache_small.overall_avg_mshr_miss_latency::.cpu.data 58253.874933                       # average overall mshr miss latency
system.cache_small.overall_avg_mshr_miss_latency::total 57965.746908                       # average overall mshr miss latency
system.cache_small.replacements                  1720                       # number of replacements
system.cache_small.ReadReq_hits::.cpu.inst          146                       # number of ReadReq hits
system.cache_small.ReadReq_hits::.cpu.data          900                       # number of ReadReq hits
system.cache_small.ReadReq_hits::total           1046                       # number of ReadReq hits
system.cache_small.ReadReq_misses::.cpu.inst         1282                       # number of ReadReq misses
system.cache_small.ReadReq_misses::.cpu.data         1871                       # number of ReadReq misses
system.cache_small.ReadReq_misses::total         3153                       # number of ReadReq misses
system.cache_small.ReadReq_miss_latency::.cpu.inst     76337000                       # number of ReadReq miss cycles
system.cache_small.ReadReq_miss_latency::.cpu.data    112735000                       # number of ReadReq miss cycles
system.cache_small.ReadReq_miss_latency::total    189072000                       # number of ReadReq miss cycles
system.cache_small.ReadReq_accesses::.cpu.inst         1428                       # number of ReadReq accesses(hits+misses)
system.cache_small.ReadReq_accesses::.cpu.data         2771                       # number of ReadReq accesses(hits+misses)
system.cache_small.ReadReq_accesses::total         4199                       # number of ReadReq accesses(hits+misses)
system.cache_small.ReadReq_miss_rate::.cpu.inst     0.897759                       # miss rate for ReadReq accesses
system.cache_small.ReadReq_miss_rate::.cpu.data     0.675208                       # miss rate for ReadReq accesses
system.cache_small.ReadReq_miss_rate::total     0.750893                       # miss rate for ReadReq accesses
system.cache_small.ReadReq_avg_miss_latency::.cpu.inst 59545.241810                       # average ReadReq miss latency
system.cache_small.ReadReq_avg_miss_latency::.cpu.data 60253.874933                       # average ReadReq miss latency
system.cache_small.ReadReq_avg_miss_latency::total 59965.746908                       # average ReadReq miss latency
system.cache_small.ReadReq_mshr_misses::.cpu.inst         1282                       # number of ReadReq MSHR misses
system.cache_small.ReadReq_mshr_misses::.cpu.data         1871                       # number of ReadReq MSHR misses
system.cache_small.ReadReq_mshr_misses::total         3153                       # number of ReadReq MSHR misses
system.cache_small.ReadReq_mshr_miss_latency::.cpu.inst     73773000                       # number of ReadReq MSHR miss cycles
system.cache_small.ReadReq_mshr_miss_latency::.cpu.data    108993000                       # number of ReadReq MSHR miss cycles
system.cache_small.ReadReq_mshr_miss_latency::total    182766000                       # number of ReadReq MSHR miss cycles
system.cache_small.ReadReq_mshr_miss_rate::.cpu.inst     0.897759                       # mshr miss rate for ReadReq accesses
system.cache_small.ReadReq_mshr_miss_rate::.cpu.data     0.675208                       # mshr miss rate for ReadReq accesses
system.cache_small.ReadReq_mshr_miss_rate::total     0.750893                       # mshr miss rate for ReadReq accesses
system.cache_small.ReadReq_avg_mshr_miss_latency::.cpu.inst 57545.241810                       # average ReadReq mshr miss latency
system.cache_small.ReadReq_avg_mshr_miss_latency::.cpu.data 58253.874933                       # average ReadReq mshr miss latency
system.cache_small.ReadReq_avg_mshr_miss_latency::total 57965.746908                       # average ReadReq mshr miss latency
system.cache_small.WritebackDirty_hits::.writebacks         1680                       # number of WritebackDirty hits
system.cache_small.WritebackDirty_hits::total         1680                       # number of WritebackDirty hits
system.cache_small.WritebackDirty_accesses::.writebacks         1680                       # number of WritebackDirty accesses(hits+misses)
system.cache_small.WritebackDirty_accesses::total         1680                       # number of WritebackDirty accesses(hits+misses)
system.cache_small.power_state.pwrStateResidencyTicks::UNDEFINED   3628009000                       # Cumulative time (in ticks) in various power states
system.cache_small.tags.tagsinuse         1457.643134                       # Cycle average of tags in use
system.cache_small.tags.total_refs               2320                       # Total number of references to valid blocks.
system.cache_small.tags.sampled_refs             1720                       # Sample count of references to valid blocks.
system.cache_small.tags.avg_refs             1.348837                       # Average number of references to valid blocks.
system.cache_small.tags.warmup_cycle            76000                       # Cycle when the warmup percentage was hit.
system.cache_small.tags.occ_blocks::.writebacks   108.480410                       # Average occupied blocks per requestor
system.cache_small.tags.occ_blocks::.cpu.inst   394.574283                       # Average occupied blocks per requestor
system.cache_small.tags.occ_blocks::.cpu.data   954.588440                       # Average occupied blocks per requestor
system.cache_small.tags.occ_percent::.writebacks     0.052969                       # Average percentage of cache occupancy
system.cache_small.tags.occ_percent::.cpu.inst     0.192663                       # Average percentage of cache occupancy
system.cache_small.tags.occ_percent::.cpu.data     0.466108                       # Average percentage of cache occupancy
system.cache_small.tags.occ_percent::total     0.711740                       # Average percentage of cache occupancy
system.cache_small.tags.occ_task_id_blocks::1024         1694                       # Occupied blocks per task id
system.cache_small.tags.age_task_id_blocks_1024::0            4                       # Occupied blocks per task id
system.cache_small.tags.age_task_id_blocks_1024::1           28                       # Occupied blocks per task id
system.cache_small.tags.age_task_id_blocks_1024::2          250                       # Occupied blocks per task id
system.cache_small.tags.age_task_id_blocks_1024::3         1412                       # Occupied blocks per task id
system.cache_small.tags.occ_task_id_percent::1024     0.827148                       # Percentage of cache occupancy per task id
system.cache_small.tags.tag_accesses             9293                       # Number of tag accesses
system.cache_small.tags.data_accesses            9293                       # Number of data accesses
system.cache_small.tags.power_state.pwrStateResidencyTicks::UNDEFINED   3628009000                       # Cumulative time (in ticks) in various power states
system.icache.demand_hits::.cpu.inst          1429291                       # number of demand (read+write) hits
system.icache.demand_hits::total              1429291                       # number of demand (read+write) hits
system.icache.overall_hits::.cpu.inst         1429291                       # number of overall hits
system.icache.overall_hits::total             1429291                       # number of overall hits
system.icache.demand_misses::.cpu.inst           1604                       # number of demand (read+write) misses
system.icache.demand_misses::total               1604                       # number of demand (read+write) misses
system.icache.overall_misses::.cpu.inst          1604                       # number of overall misses
system.icache.overall_misses::total              1604                       # number of overall misses
system.icache.demand_miss_latency::.cpu.inst    103611000                       # number of demand (read+write) miss cycles
system.icache.demand_miss_latency::total    103611000                       # number of demand (read+write) miss cycles
system.icache.overall_miss_latency::.cpu.inst    103611000                       # number of overall miss cycles
system.icache.overall_miss_latency::total    103611000                       # number of overall miss cycles
system.icache.demand_accesses::.cpu.inst      1430895                       # number of demand (read+write) accesses
system.icache.demand_accesses::total          1430895                       # number of demand (read+write) accesses
system.icache.overall_accesses::.cpu.inst      1430895                       # number of overall (read+write) accesses
system.icache.overall_accesses::total         1430895                       # number of overall (read+write) accesses
system.icache.demand_miss_rate::.cpu.inst     0.001121                       # miss rate for demand accesses
system.icache.demand_miss_rate::total        0.001121                       # miss rate for demand accesses
system.icache.overall_miss_rate::.cpu.inst     0.001121                       # miss rate for overall accesses
system.icache.overall_miss_rate::total       0.001121                       # miss rate for overall accesses
system.icache.demand_avg_miss_latency::.cpu.inst 64595.386534                       # average overall miss latency
system.icache.demand_avg_miss_latency::total 64595.386534                       # average overall miss latency
system.icache.overall_avg_miss_latency::.cpu.inst 64595.386534                       # average overall miss latency
system.icache.overall_avg_miss_latency::total 64595.386534                       # average overall miss latency
system.icache.blocked_cycles::no_mshrs              0                       # number of cycles access was blocked
system.icache.blocked_cycles::no_targets            0                       # number of cycles access was blocked
system.icache.blocked::no_mshrs                     0                       # number of cycles access was blocked
system.icache.blocked::no_targets                   0                       # number of cycles access was blocked
system.icache.avg_blocked_cycles::no_mshrs          nan                       # average number of cycles each access was blocked
system.icache.avg_blocked_cycles::no_targets          nan                       # average number of cycles each access was blocked
system.icache.demand_mshr_misses::.cpu.inst         1604                       # number of demand (read+write) MSHR misses
system.icache.demand_mshr_misses::total          1604                       # number of demand (read+write) MSHR misses
system.icache.overall_mshr_misses::.cpu.inst         1604                       # number of overall MSHR misses
system.icache.overall_mshr_misses::total         1604                       # number of overall MSHR misses
system.icache.demand_mshr_miss_latency::.cpu.inst    100403000                       # number of demand (read+write) MSHR miss cycles
system.icache.demand_mshr_miss_latency::total    100403000                       # number of demand (read+write) MSHR miss cycles
system.icache.overall_mshr_miss_latency::.cpu.inst    100403000                       # number of overall MSHR miss cycles
system.icache.overall_mshr_miss_latency::total    100403000                       # number of overall MSHR miss cycles
system.icache.demand_mshr_miss_rate::.cpu.inst     0.001121                       # mshr miss rate for demand accesses
system.icache.demand_mshr_miss_rate::total     0.001121                       # mshr miss rate for demand accesses
system.icache.overall_mshr_miss_rate::.cpu.inst     0.001121                       # mshr miss rate for overall accesses
system.icache.overall_mshr_miss_rate::total     0.001121                       # mshr miss rate for overall accesses
system.icache.demand_avg_mshr_miss_latency::.cpu.inst 62595.386534                       # average overall mshr miss latency
system.icache.demand_avg_mshr_miss_latency::total 62595.386534                       # average overall mshr miss latency
system.icache.overall_avg_mshr_miss_latency::.cpu.inst 62595.386534                       # average overall mshr miss latency
system.icache.overall_avg_mshr_miss_latency::total 62595.386534                       # average overall mshr miss latency
system.icache.replacements                       1349                       # number of replacements
system.icache.ReadReq_hits::.cpu.inst         1429291                       # number of ReadReq hits
system.icache.ReadReq_hits::total             1429291                       # number of ReadReq hits
system.icache.ReadReq_misses::.cpu.inst          1604                       # number of ReadReq misses
system.icache.ReadReq_misses::total              1604                       # number of ReadReq misses
system.icache.ReadReq_miss_latency::.cpu.inst    103611000                       # number of ReadReq miss cycles
system.icache.ReadReq_miss_latency::total    103611000                       # number of ReadReq miss cycles
system.icache.ReadReq_accesses::.cpu.inst      1430895                       # number of ReadReq accesses(hits+misses)
system.icache.ReadReq_accesses::total         1430895                       # number of ReadReq accesses(hits+misses)
system.icache.ReadReq_miss_rate::.cpu.inst     0.001121                       # miss rate for ReadReq accesses
system.icache.ReadReq_miss_rate::total       0.001121                       # miss rate for ReadReq accesses
system.icache.ReadReq_avg_miss_latency::.cpu.inst 64595.386534                       # average ReadReq miss latency
system.icache.ReadReq_avg_miss_latency::total 64595.386534                       # average ReadReq miss latency
system.icache.ReadReq_mshr_misses::.cpu.inst         1604                       # number of ReadReq MSHR misses
system.icache.ReadReq_mshr_misses::total         1604                       # number of ReadReq MSHR misses
system.icache.ReadReq_mshr_miss_latency::.cpu.inst    100403000                       # number of ReadReq MSHR miss cycles
system.icache.ReadReq_mshr_miss_latency::total    100403000                       # number of ReadReq MSHR miss cycles
system.icache.ReadReq_mshr_miss_rate::.cpu.inst     0.001121                       # mshr miss rate for ReadReq accesses
system.icache.ReadReq_mshr_miss_rate::total     0.001121                       # mshr miss rate for ReadReq accesses
system.icache.ReadReq_avg_mshr_miss_latency::.cpu.inst 62595.386534                       # average ReadReq mshr miss latency
system.icache.ReadReq_avg_mshr_miss_latency::total 62595.386534                       # average ReadReq mshr miss latency
system.icache.power_state.pwrStateResidencyTicks::UNDEFINED   3628009000                       # Cumulative time (in ticks) in various power states
system.icache.tags.tagsinuse               250.764978                       # Cycle average of tags in use
system.icache.tags.total_refs                  203579                       # Total number of references to valid blocks.
system.icache.tags.sampled_refs                  1349                       # Sample count of references to valid blocks.
system.icache.tags.avg_refs                150.911045                       # Average number of references to valid blocks.
system.icache.tags.warmup_cycle                 82000                       # Cycle when the warmup percentage was hit.
system.icache.tags.occ_blocks::.cpu.inst   250.764978                       # Average occupied blocks per requestor
system.icache.tags.occ_percent::.cpu.inst     0.979551                       # Average percentage of cache occupancy
system.icache.tags.occ_percent::total        0.979551                       # Average percentage of cache occupancy
system.icache.tags.occ_task_id_blocks::1024          255                       # Occupied blocks per task id
system.icache.tags.age_task_id_blocks_1024::3          255                       # Occupied blocks per task id
system.icache.tags.occ_task_id_percent::1024     0.996094                       # Percentage of cache occupancy per task id
system.icache.tags.tag_accesses               1432499                       # Number of tag accesses
system.icache.tags.data_accesses              1432499                       # Number of data accesses
system.icache.tags.power_state.pwrStateResidencyTicks::UNDEFINED   3628009000                       # Cumulative time (in ticks) in various power states
system.membus.trans_dist::ReadReq                3153                       # Transaction distribution
system.membus.trans_dist::ReadResp               3153                       # Transaction distribution
system.membus.trans_dist::WritebackDirty          257                       # Transaction distribution
system.membus.pkt_count_system.cache_small.mem_side::system.mem_ctrl.port         6563                       # Packet count per connected master and slave (bytes)
system.membus.pkt_count_system.cache_small.mem_side::total         6563                       # Packet count per connected master and slave (bytes)
system.membus.pkt_count::total                   6563                       # Packet count per connected master and slave (bytes)
system.membus.pkt_size_system.cache_small.mem_side::system.mem_ctrl.port       218240                       # Cumulative packet size per connected master and slave (bytes)
system.membus.pkt_size_system.cache_small.mem_side::total       218240                       # Cumulative packet size per connected master and slave (bytes)
system.membus.pkt_size::total                  218240                       # Cumulative packet size per connected master and slave (bytes)
system.membus.reqLayer2.occupancy             4438000                       # Layer occupancy (ticks)
system.membus.reqLayer2.utilization               0.1                       # Layer utilization (%)
system.membus.respLayer1.occupancy           16831000                       # Layer occupancy (ticks)
system.membus.respLayer1.utilization              0.5                       # Layer utilization (%)
system.membus.power_state.pwrStateResidencyTicks::UNDEFINED   3628009000                       # Cumulative time (in ticks) in various power states
system.mem_ctrl.bytes_read::.cpu.inst           82048                       # Number of bytes read from this memory
system.mem_ctrl.bytes_read::.cpu.data          119744                       # Number of bytes read from this memory
system.mem_ctrl.bytes_read::total              201792                       # Number of bytes read from this memory
system.mem_ctrl.bytes_inst_read::.cpu.inst        82048                       # Number of instructions bytes read from this memory
system.mem_ctrl.bytes_inst_read::total          82048                       # Number of instructions bytes read from this memory
system.mem_ctrl.bytes_written::.writebacks        16448                       # Number of bytes written to this memory
system.mem_ctrl.bytes_written::total            16448                       # Number of bytes written to this memory
system.mem_ctrl.num_reads::.cpu.inst             1282                       # Number of read requests responded to by this memory
system.mem_ctrl.num_reads::.cpu.data             1871                       # Number of read requests responded to by this memory
system.mem_ctrl.num_reads::total                 3153                       # Number of read requests responded to by this memory
system.mem_ctrl.num_writes::.writebacks           257                       # Number of write requests responded to by this memory
system.mem_ctrl.num_writes::total                 257                       # Number of write requests responded to by this memory
system.mem_ctrl.bw_read::.cpu.inst           22615159                       # Total read bandwidth from this memory (bytes/s)
system.mem_ctrl.bw_read::.cpu.data           33005431                       # Total read bandwidth from this memory (bytes/s)
system.mem_ctrl.bw_read::total               55620590                       # Total read bandwidth from this memory (bytes/s)
system.mem_ctrl.bw_inst_read::.cpu.inst      22615159                       # Instruction read bandwidth from this memory (bytes/s)
system.mem_ctrl.bw_inst_read::total          22615159                       # Instruction read bandwidth from this memory (bytes/s)
system.mem_ctrl.bw_write::.writebacks         4533616                       # Write bandwidth from this memory (bytes/s)
system.mem_ctrl.bw_write::total               4533616                       # Write bandwidth from this memory (bytes/s)
system.mem_ctrl.bw_total::.writebacks         4533616                       # Total bandwidth to/from this memory (bytes/s)
system.mem_ctrl.bw_total::.cpu.inst          22615159                       # Total bandwidth to/from this memory (bytes/s)
system.mem_ctrl.bw_total::.cpu.data          33005431                       # Total bandwidth to/from this memory (bytes/s)
system.mem_ctrl.bw_total::total              60154206                       # Total bandwidth to/from this memory (bytes/s)
system.mem_ctrl.avgPriority_.writebacks::samples       257.00                       # Average QoS priority value for accepted requests
system.mem_ctrl.avgPriority_.cpu.inst::samples      1282.00                       # Average QoS priority value for accepted requests
system.mem_ctrl.avgPriority_.cpu.data::samples      1864.00                       # Average QoS priority value for accepted requests
system.mem_ctrl.priorityMinLatency       0.000000018750                       # per QoS priority minimum request to response latency (s)
system.mem_ctrl.priorityMaxLatency       0.003869658500                       # per QoS priority maximum request to response latency (s)
system.mem_ctrl.numReadWriteTurnArounds            14                       # Number of turnarounds from READ to WRITE
system.mem_ctrl.numWriteReadTurnArounds            14                       # Number of turnarounds from WRITE to READ
system.mem_ctrl.numStayReadState                 7469                       # Number of times bus staying in READ state
system.mem_ctrl.numStayWriteState                 230                       # Number of times bus staying in WRITE state
system.mem_ctrl.readReqs                         3153                       # Number of read requests accepted
system.mem_ctrl.writeReqs                         257                       # Number of write requests accepted
system.mem_ctrl.readBursts                       3153                       # Number of DRAM read bursts, including those serviced by the write queue
system.mem_ctrl.writeBursts                       257                       # Number of DRAM write bursts, including those merged in the write queue
system.mem_ctrl.servicedByWrQ                       7                       # Number of DRAM read bursts serviced by the write queue
system.mem_ctrl.mergedWrBursts                      0                       # Number of DRAM write bursts merged with an existing one
system.mem_ctrl.neitherReadNorWriteReqs             0                       # Number of requests that are neither read nor write
system.mem_ctrl.perBankRdBursts::0                217                       # Per bank write bursts
system.mem_ctrl.perBankRdBursts::1                310                       # Per bank write bursts
system.mem_ctrl.perBankRdBursts::2                322                       # Per bank write bursts
system.mem_ctrl.perBankRdBursts::3                300                       # Per bank write bursts
system.mem_ctrl.perBankRdBursts::4                204                       # Per bank write bursts
system.mem_ctrl.perBankRdBursts::5                137                       # Per bank write bursts
system.mem_ctrl.perBankRdBursts::6                170                       # Per bank write bursts
system.mem_ctrl.perBankRdBursts::7                 83                       # Per bank write bursts
system.mem_ctrl.perBankRdBursts::8                 27                       # Per bank write bursts
system.mem_ctrl.perBankRdBursts::9                274                       # Per bank write bursts
system.mem_ctrl.perBankRdBursts::10               296                       # Per bank write bursts
system.mem_ctrl.perBankRdBursts::11               173                       # Per bank write bursts
system.mem_ctrl.perBankRdBursts::12               187                       # Per bank write bursts
system.mem_ctrl.perBankRdBursts::13               180                       # Per bank write bursts
system.mem_ctrl.perBankRdBursts::14               189                       # Per bank write bursts
system.mem_ctrl.perBankRdBursts::15                77                       # Per bank write bursts
system.mem_ctrl.perBankWrBursts::0                 17                       # Per bank write bursts
system.mem_ctrl.perBankWrBursts::1                 43                       # Per bank write bursts
system.mem_ctrl.perBankWrBursts::2                 48                       # Per bank write bursts
system.mem_ctrl.perBankWrBursts::3                 14                       # Per bank write bursts
system.mem_ctrl.perBankWrBursts::4                  2                       # Per bank write bursts
system.mem_ctrl.perBankWrBursts::5                  0                       # Per bank write bursts
system.mem_ctrl.perBankWrBursts::6                  8                       # Per bank write bursts
system.mem_ctrl.perBankWrBursts::7                  0                       # Per bank write bursts
system.mem_ctrl.perBankWrBursts::8                  0                       # Per bank write bursts
system.mem_ctrl.perBankWrBursts::9                  6                       # Per bank write bursts
system.mem_ctrl.perBankWrBursts::10                12                       # Per bank write bursts
system.mem_ctrl.perBankWrBursts::11                13                       # Per bank write bursts
system.mem_ctrl.perBankWrBursts::12                19                       # Per bank write bursts
system.mem_ctrl.perBankWrBursts::13                21                       # Per bank write bursts
system.mem_ctrl.perBankWrBursts::14                38                       # Per bank write bursts
system.mem_ctrl.perBankWrBursts::15                 0                       # Per bank write bursts
system.mem_ctrl.avgRdQLen                        1.00                       # Average read queue length when enqueuing
system.mem_ctrl.avgWrQLen                       23.45                       # Average write queue length when enqueuing
system.mem_ctrl.totQLat                      25039500                       # Total ticks spent queuing
system.mem_ctrl.totBusLat                    15730000                       # Total ticks spent in databus transfers
system.mem_ctrl.totMemAccLat                 84027000                       # Total ticks spent from burst creation until serviced by the DRAM
system.mem_ctrl.avgQLat                       7959.15                       # Average queueing delay per DRAM burst
system.mem_ctrl.avgBusLat                     5000.00                       # Average bus latency per DRAM burst
system.mem_ctrl.avgMemAccLat                 26709.15                       # Average memory access latency per DRAM burst
system.mem_ctrl.numRdRetry                          0                       # Number of times read queue was full causing retry
system.mem_ctrl.numWrRetry                          0                       # Number of times write queue was full causing retry
system.mem_ctrl.readRowHits                      2145                       # Number of row buffer hits during reads
system.mem_ctrl.writeRowHits                      195                       # Number of row buffer hits during writes
system.mem_ctrl.readRowHitRate                  68.18                       # Row buffer hit rate for reads
system.mem_ctrl.writeRowHitRate                 75.88                       # Row buffer hit rate for writes
system.mem_ctrl.readPktSize::0                      0                       # Read request sizes (log2)
system.mem_ctrl.readPktSize::1                      0                       # Read request sizes (log2)
system.mem_ctrl.readPktSize::2                      0                       # Read request sizes (log2)
system.mem_ctrl.readPktSize::3                      0                       # Read request sizes (log2)
system.mem_ctrl.readPktSize::4                      0                       # Read request sizes (log2)
system.mem_ctrl.readPktSize::5                      0                       # Read request sizes (log2)
system.mem_ctrl.readPktSize::6                   3153                       # Read request sizes (log2)
system.mem_ctrl.writePktSize::0                     0                       # Write request sizes (log2)
system.mem_ctrl.writePktSize::1                     0                       # Write request sizes (log2)
system.mem_ctrl.writePktSize::2                     0                       # Write request sizes (log2)
system.mem_ctrl.writePktSize::3                     0                       # Write request sizes (log2)
system.mem_ctrl.writePktSize::4                     0                       # Write request sizes (log2)
system.mem_ctrl.writePktSize::5                     0                       # Write request sizes (log2)
system.mem_ctrl.writePktSize::6                   257                       # Write request sizes (log2)
system.mem_ctrl.rdQLenPdf::0                     3146                       # What read queue length does an incoming req see
system.mem_ctrl.rdQLenPdf::1                        0                       # What read queue length does an incoming req see
system.mem_ctrl.rdQLenPdf::2                        0                       # What read queue length does an incoming req see
system.mem_ctrl.rdQLenPdf::3                        0                       # What read queue length does an incoming req see
system.mem_ctrl.rdQLenPdf::4                        0                       # What read queue length does an incoming req see
system.mem_ctrl.rdQLenPdf::5                        0                       # What read queue length does an incoming req see
system.mem_ctrl.rdQLenPdf::6                        0                       # What read queue length does an incoming req see
system.mem_ctrl.rdQLenPdf::7                        0                       # What read queue length does an incoming req see
system.mem_ctrl.rdQLenPdf::8                        0                       # What read queue length does an incoming req see
system.mem_ctrl.rdQLenPdf::9                        0                       # What read queue length does an incoming req see
system.mem_ctrl.rdQLenPdf::10                       0                       # What read queue length does an incoming req see
system.mem_ctrl.rdQLenPdf::11                       0                       # What read queue length does an incoming req see
system.mem_ctrl.rdQLenPdf::12                       0                       # What read queue length does an incoming req see
system.mem_ctrl.rdQLenPdf::13                       0                       # What read queue length does an incoming req see
system.mem_ctrl.rdQLenPdf::14                       0                       # What read queue length does an incoming req see
system.mem_ctrl.rdQLenPdf::15                       0                       # What read queue length does an incoming req see
system.mem_ctrl.rdQLenPdf::16                       0                       # What read queue length does an incoming req see
system.mem_ctrl.rdQLenPdf::17                       0                       # What read queue length does an incoming req see
system.mem_ctrl.rdQLenPdf::18                       0                       # What read queue length does an incoming req see
system.mem_ctrl.rdQLenPdf::19                       0                       # What read queue length does an incoming req see
system.mem_ctrl.rdQLenPdf::20                       0                       # What read queue length does an incoming req see
system.mem_ctrl.rdQLenPdf::21                       0                       # What read queue length does an incoming req see
system.mem_ctrl.rdQLenPdf::22                       0                       # What read queue length does an incoming req see
system.mem_ctrl.rdQLenPdf::23                       0                       # What read queue length does an incoming req see
system.mem_ctrl.rdQLenPdf::24                       0                       # What read queue length does an incoming req see
system.mem_ctrl.rdQLenPdf::25                       0                       # What read queue length does an incoming req see
system.mem_ctrl.rdQLenPdf::26                       0                       # What read queue length does an incoming req see
system.mem_ctrl.rdQLenPdf::27                       0                       # What read queue length does an incoming req see
system.mem_ctrl.rdQLenPdf::28                       0                       # What read queue length does an incoming req see
system.mem_ctrl.rdQLenPdf::29                       0                       # What read queue length does an incoming req see
system.mem_ctrl.rdQLenPdf::30                       0                       # What read queue length does an incoming req see
system.mem_ctrl.rdQLenPdf::31                       0                       # What read queue length does an incoming req see
system.mem_ctrl.wrQLenPdf::0                        1                       # What write queue length does an incoming req see
system.mem_ctrl.wrQLenPdf::1                        1                       # What write queue length does an incoming req see
system.mem_ctrl.wrQLenPdf::2                        1                       # What write queue length does an incoming req see
system.mem_ctrl.wrQLenPdf::3                        1                       # What write queue length does an incoming req see
system.mem_ctrl.wrQLenPdf::4                        1                       # What write queue length does an incoming req see
system.mem_ctrl.wrQLenPdf::5                        1                       # What write queue length does an incoming req see
system.mem_ctrl.wrQLenPdf::6                        1                       # What write queue length does an incoming req see
system.mem_ctrl.wrQLenPdf::7                        1                       # What write queue length does an incoming req see
system.mem_ctrl.wrQLenPdf::8                        1                       # What write queue length does an incoming req see
system.mem_ctrl.wrQLenPdf::9                        1                       # What write queue length does an incoming req see
system.mem_ctrl.wrQLenPdf::10                       1                       # What write queue length does an incoming req see
system.mem_ctrl.wrQLenPdf::11                       1                       # What write queue length does an incoming req see
system.mem_ctrl.wrQLenPdf::12                       1                       # What write queue length does an incoming req see
system.mem_ctrl.wrQLenPdf::13                       1                       # What write queue length does an incoming req see
system.mem_ctrl.wrQLenPdf::14                       1                       # What write queue length does an incoming req see
system.mem_ctrl.wrQLenPdf::15                       9                       # What write queue length does an incoming req see
system.mem_ctrl.wrQLenPdf::16                       9                       # What write queue length does an incoming req see
system.mem_ctrl.wrQLenPdf::17                      14                       # What write queue length does an incoming req see
system.mem_ctrl.wrQLenPdf::18                      14                       # What write queue length does an incoming req see
system.mem_ctrl.wrQLenPdf::19                      14                       # What write queue length does an incoming req see
system.mem_ctrl.wrQLenPdf::20                      14                       # What write queue length does an incoming req see
system.mem_ctrl.wrQLenPdf::21                      14                       # What write queue length does an incoming req see
system.mem_ctrl.wrQLenPdf::22                      14                       # What write queue length does an incoming req see
system.mem_ctrl.wrQLenPdf::23                      14                       # What write queue length does an incoming req see
system.mem_ctrl.wrQLenPdf::24                      14                       # What write queue length does an incoming req see
system.mem_ctrl.wrQLenPdf::25                      14                       # What write queue length does an incoming req see
system.mem_ctrl.wrQLenPdf::26                      14                       # What write queue length does an incoming req see
system.mem_ctrl.wrQLenPdf::27                      14                       # What write queue length does an incoming req see
system.mem_ctrl.wrQLenPdf::28                      14                       # What write queue length does an incoming req see
system.mem_ctrl.wrQLenPdf::29                      14                       # What write queue length does an incoming req see
system.mem_ctrl.wrQLenPdf::30                      14                       # What write queue length does an incoming req see
system.mem_ctrl.wrQLenPdf::31                      14                       # What write queue length does an incoming req see
system.mem_ctrl.wrQLenPdf::32                      14                       # What write queue length does an incoming req see
system.mem_ctrl.wrQLenPdf::33                       0                       # What write queue length does an incoming req see
system.mem_ctrl.wrQLenPdf::34                       0                       # What write queue length does an incoming req see
system.mem_ctrl.wrQLenPdf::35                       0                       # What write queue length does an incoming req see
system.mem_ctrl.wrQLenPdf::36                       0                       # What write queue length does an incoming req see
system.mem_ctrl.wrQLenPdf::37                       0                       # What write queue length does an incoming req see
system.mem_ctrl.wrQLenPdf::38                       0                       # What write queue length does an incoming req see
system.mem_ctrl.wrQLenPdf::39                       0                       # What write queue length does an incoming req see
system.mem_ctrl.wrQLenPdf::40                       0                       # What write queue length does an incoming req see
system.mem_ctrl.wrQLenPdf::41                       0                       # What write queue length does an incoming req see
system.mem_ctrl.wrQLenPdf::42                       0                       # What write queue length does an incoming req see
system.mem_ctrl.wrQLenPdf::43                       0                       # What write queue length does an incoming req see
system.mem_ctrl.wrQLenPdf::44                       0                       # What write queue length does an incoming req see
system.mem_ctrl.wrQLenPdf::45                       0                       # What write queue length does an incoming req see
system.mem_ctrl.wrQLenPdf::46                       0                       # What write queue length does an incoming req see
system.mem_ctrl.wrQLenPdf::47                       0                       # What write queue length does an incoming req see
system.mem_ctrl.wrQLenPdf::48                       0                       # What write queue length does an incoming req see
system.mem_ctrl.wrQLenPdf::49                       0                       # What write queue length does an incoming req see
system.mem_ctrl.wrQLenPdf::50                       0                       # What write queue length does an incoming req see
system.mem_ctrl.wrQLenPdf::51                       0                       # What write queue length does an incoming req see
system.mem_ctrl.wrQLenPdf::52                       0                       # What write queue length does an incoming req see
system.mem_ctrl.wrQLenPdf::53                       0                       # What write queue length does an incoming req see
system.mem_ctrl.wrQLenPdf::54                       0                       # What write queue length does an incoming req see
system.mem_ctrl.wrQLenPdf::55                       0                       # What write queue length does an incoming req see
system.mem_ctrl.wrQLenPdf::56                       0                       # What write queue length does an incoming req see
system.mem_ctrl.wrQLenPdf::57                       0                       # What write queue length does an incoming req see
system.mem_ctrl.wrQLenPdf::58                       0                       # What write queue length does an incoming req see
system.mem_ctrl.wrQLenPdf::59                       0                       # What write queue length does an incoming req see
system.mem_ctrl.wrQLenPdf::60                       0                       # What write queue length does an incoming req see
system.mem_ctrl.wrQLenPdf::61                       0                       # What write queue length does an incoming req see
system.mem_ctrl.wrQLenPdf::62                       0                       # What write queue length does an incoming req see
system.mem_ctrl.wrQLenPdf::63                       0                       # What write queue length does an incoming req see
system.mem_ctrl.bytesPerActivate::samples         1046                       # Bytes accessed per row activation
system.mem_ctrl.bytesPerActivate::mean     207.173996                       # Bytes accessed per row activation
system.mem_ctrl.bytesPerActivate::gmean    136.023758                       # Bytes accessed per row activation
system.mem_ctrl.bytesPerActivate::stdev    244.352852                       # Bytes accessed per row activation
system.mem_ctrl.bytesPerActivate::0-127           416     39.77%     39.77% # Bytes accessed per row activation
system.mem_ctrl.bytesPerActivate::128-255          387     37.00%     76.77% # Bytes accessed per row activation
system.mem_ctrl.bytesPerActivate::256-383           91      8.70%     85.47% # Bytes accessed per row activation
system.mem_ctrl.bytesPerActivate::384-511           42      4.02%     89.48% # Bytes accessed per row activation
system.mem_ctrl.bytesPerActivate::512-639           22      2.10%     91.59% # Bytes accessed per row activation
system.mem_ctrl.bytesPerActivate::640-767           11      1.05%     92.64% # Bytes accessed per row activation
system.mem_ctrl.bytesPerActivate::768-895           18      1.72%     94.36% # Bytes accessed per row activation
system.mem_ctrl.bytesPerActivate::896-1023            8      0.76%     95.12% # Bytes accessed per row activation
system.mem_ctrl.bytesPerActivate::1024-1151           51      4.88%    100.00% # Bytes accessed per row activation
system.mem_ctrl.bytesPerActivate::total          1046                       # Bytes accessed per row activation
system.mem_ctrl.rdPerTurnAround::samples           14                       # Reads before turning the bus around for writes
system.mem_ctrl.rdPerTurnAround::mean      224.428571                       # Reads before turning the bus around for writes
system.mem_ctrl.rdPerTurnAround::gmean      96.353313                       # Reads before turning the bus around for writes
system.mem_ctrl.rdPerTurnAround::stdev     463.630608                       # Reads before turning the bus around for writes
system.mem_ctrl.rdPerTurnAround::0-63               7     50.00%     50.00% # Reads before turning the bus around for writes
system.mem_ctrl.rdPerTurnAround::64-127             2     14.29%     64.29% # Reads before turning the bus around for writes
system.mem_ctrl.rdPerTurnAround::128-191            1      7.14%     71.43% # Reads before turning the bus around for writes
system.mem_ctrl.rdPerTurnAround::192-255            2     14.29%     85.71% # Reads before turning the bus around for writes
system.mem_ctrl.rdPerTurnAround::256-319            1      7.14%     92.86% # Reads before turning the bus around for writes
system.mem_ctrl.rdPerTurnAround::1792-1855            1      7.14%    100.00% # Reads before turning the bus around for writes
system.mem_ctrl.rdPerTurnAround::total             14                       # Reads before turning the bus around for writes
system.mem_ctrl.wrPerTurnAround::samples           14                       # Writes before turning the bus around for reads
system.mem_ctrl.wrPerTurnAround::mean       17.214286                       # Writes before turning the bus around for reads
system.mem_ctrl.wrPerTurnAround::gmean      17.188209                       # Writes before turning the bus around for reads
system.mem_ctrl.wrPerTurnAround::stdev       0.974961                       # Writes before turning the bus around for reads
system.mem_ctrl.wrPerTurnAround::16                 5     35.71%     35.71% # Writes before turning the bus around for reads
system.mem_ctrl.wrPerTurnAround::17                 1      7.14%     42.86% # Writes before turning the bus around for reads
system.mem_ctrl.wrPerTurnAround::18                 8     57.14%    100.00% # Writes before turning the bus around for reads
system.mem_ctrl.wrPerTurnAround::total             14                       # Writes before turning the bus around for reads
system.mem_ctrl.bytesReadDRAM                  201344                       # Total number of bytes read from DRAM
system.mem_ctrl.bytesReadWrQ                      448                       # Total number of bytes read from write queue
system.mem_ctrl.bytesWritten                    15424                       # Total number of bytes written to DRAM
system.mem_ctrl.bytesReadSys                   201792                       # Total read bytes from the system interface side
system.mem_ctrl.bytesWrittenSys                 16448                       # Total written bytes from the system interface side
system.mem_ctrl.avgRdBW                         55.50                       # Average DRAM read bandwidth in MiByte/s
system.mem_ctrl.avgWrBW                          4.25                       # Average achieved write bandwidth in MiByte/s
system.mem_ctrl.avgRdBWSys                      55.62                       # Average system read bandwidth in MiByte/s
system.mem_ctrl.avgWrBWSys                       4.53                       # Average system write bandwidth in MiByte/s
system.mem_ctrl.peakBW                       12800.00                       # Theoretical peak bandwidth in MiByte/s
system.mem_ctrl.busUtil                          0.47                       # Data bus utilization in percentage
system.mem_ctrl.busUtilRead                      0.43                       # Data bus utilization in percentage for reads
system.mem_ctrl.busUtilWrite                     0.03                       # Data bus utilization in percentage for writes
system.mem_ctrl.totGap                     3623485000                       # Total gap between requests
system.mem_ctrl.avgGap                     1062605.57                       # Average gap between requests
system.mem_ctrl.masterReadBytes::.cpu.inst        82048                       # Per-master bytes read from memory
system.mem_ctrl.masterReadBytes::.cpu.data       119296                       # Per-master bytes read from memory
system.mem_ctrl.masterWriteBytes::.writebacks        15424                       # Per-master bytes write to memory
system.mem_ctrl.masterReadRate::.cpu.inst 22615158.892935492098                       # Per-master bytes read from memory rate (Bytes/sec)
system.mem_ctrl.masterReadRate::.cpu.data 32881947.095500588417                       # Per-master bytes read from memory rate (Bytes/sec)
system.mem_ctrl.masterWriteRate::.writebacks 4251367.623398949392                       # Per-master bytes write to memory rate (Bytes/sec)
system.mem_ctrl.masterReadAccesses::.cpu.inst         1282                       # Per-master read serviced memory accesses
system.mem_ctrl.masterReadAccesses::.cpu.data         1871                       # Per-master read serviced memory accesses
system.mem_ctrl.masterWriteAccesses::.writebacks          257                       # Per-master write serviced memory accesses
system.mem_ctrl.masterReadTotalLat::.cpu.inst     33611000                       # Per-master read total memory access latency
system.mem_ctrl.masterReadTotalLat::.cpu.data     50416000                       # Per-master read total memory access latency
system.mem_ctrl.masterWriteTotalLat::.writebacks  79137263250                       # Per-master write total memory access latency
system.mem_ctrl.masterReadAvgLat::.cpu.inst     26217.63                       # Per-master read average memory access latency
system.mem_ctrl.masterReadAvgLat::.cpu.data     26946.02                       # Per-master read average memory access latency
system.mem_ctrl.masterWriteAvgLat::.writebacks 307927094.36                       # Per-master write average memory access latency
system.mem_ctrl.pageHitRate                     68.76                       # Row buffer hit rate, read and write combined
system.mem_ctrl.rank1.actEnergy               4126920                       # Energy for activate commands per rank (pJ)
system.mem_ctrl.rank1.preEnergy               2189715                       # Energy for precharge commands per rank (pJ)
system.mem_ctrl.rank1.readEnergy             10017420                       # Energy for read commands per rank (pJ)
system.mem_ctrl.rank1.writeEnergy              568980                       # Energy for write commands per rank (pJ)
system.mem_ctrl.rank1.refreshEnergy      285807600.000000                       # Energy for refresh commands per rank (pJ)
system.mem_ctrl.rank1.actBackEnergy         967719780                       # Energy for active background per rank (pJ)
system.mem_ctrl.rank1.preBackEnergy         578233920                       # Energy for precharge background per rank (pJ)
system.mem_ctrl.rank1.actPowerDownEnergy            0                       # Energy for active power-down per rank (pJ)
system.mem_ctrl.rank1.prePowerDownEnergy            0                       # Energy for precharge power-down per rank (pJ)
system.mem_ctrl.rank1.selfRefreshEnergy             0                       # Energy for self refresh per rank (pJ)
system.mem_ctrl.rank1.totalEnergy          1848664335                       # Total energy per rank (pJ)
system.mem_ctrl.rank1.averagePower         509.553404                       # Core power per rank (mW)
system.mem_ctrl.rank1.totalIdleTime                 0                       # Total Idle time Per DRAM Rank
system.mem_ctrl.rank1.memoryStateTime::IDLE   1493985500                       # Time in different power states
system.mem_ctrl.rank1.memoryStateTime::REF    120900000                       # Time in different power states
system.mem_ctrl.rank1.memoryStateTime::SREF            0                       # Time in different power states
system.mem_ctrl.rank1.memoryStateTime::PRE_PDN            0                       # Time in different power states
system.mem_ctrl.rank1.memoryStateTime::ACT   2013123500                       # Time in different power states
system.mem_ctrl.rank1.memoryStateTime::ACT_PDN            0                       # Time in different power states
system.mem_ctrl.rank0.actEnergy               3348660                       # Energy for activate commands per rank (pJ)
system.mem_ctrl.rank0.preEnergy               1779855                       # Energy for precharge commands per rank (pJ)
system.mem_ctrl.rank0.readEnergy             12445020                       # Energy for read commands per rank (pJ)
system.mem_ctrl.rank0.writeEnergy              689040                       # Energy for write commands per rank (pJ)
system.mem_ctrl.rank0.refreshEnergy      285807600.000000                       # Energy for refresh commands per rank (pJ)
system.mem_ctrl.rank0.actBackEnergy         395576010                       # Energy for active background per rank (pJ)
system.mem_ctrl.rank0.preBackEnergy        1060039200                       # Energy for precharge background per rank (pJ)
system.mem_ctrl.rank0.actPowerDownEnergy            0                       # Energy for active power-down per rank (pJ)
system.mem_ctrl.rank0.prePowerDownEnergy            0                       # Energy for precharge power-down per rank (pJ)
system.mem_ctrl.rank0.selfRefreshEnergy             0                       # Energy for self refresh per rank (pJ)
system.mem_ctrl.rank0.totalEnergy          1759685385                       # Total energy per rank (pJ)
system.mem_ctrl.rank0.averagePower         485.027844                       # Core power per rank (mW)
system.mem_ctrl.rank0.totalIdleTime                 0                       # Total Idle time Per DRAM Rank
system.mem_ctrl.rank0.memoryStateTime::IDLE   2751875750                       # Time in different power states
system.mem_ctrl.rank0.memoryStateTime::REF    120900000                       # Time in different power states
system.mem_ctrl.rank0.memoryStateTime::SREF            0                       # Time in different power states
system.mem_ctrl.rank0.memoryStateTime::PRE_PDN            0                       # Time in different power states
system.mem_ctrl.rank0.memoryStateTime::ACT    755233250                       # Time in different power states
system.mem_ctrl.rank0.memoryStateTime::ACT_PDN            0                       # Time in different power states
system.mem_ctrl.power_state.pwrStateResidencyTicks::UNDEFINED   3628009000                       # Cumulative time (in ticks) in various power states
system.cache_medium.blocked_cycles::no_mshrs            0                       # number of cycles access was blocked
system.cache_medium.blocked_cycles::no_targets            0                       # number of cycles access was blocked
system.cache_medium.blocked::no_mshrs               0                       # number of cycles access was blocked
system.cache_medium.blocked::no_targets             0                       # number of cycles access was blocked
system.cache_medium.avg_blocked_cycles::no_mshrs          nan                       # average number of cycles each access was blocked
system.cache_medium.avg_blocked_cycles::no_targets          nan                       # average number of cycles each access was blocked
system.cache_medium.replacements                    0                       # number of replacements
system.cache_medium.power_state.pwrStateResidencyTicks::UNDEFINED   3628009000                       # Cumulative time (in ticks) in various power states
system.cache_medium.tags.tagsinuse                  0                       # Cycle average of tags in use
system.cache_medium.tags.total_refs                 0                       # Total number of references to valid blocks.
system.cache_medium.tags.sampled_refs               0                       # Sample count of references to valid blocks.
system.cache_medium.tags.avg_refs                 nan                       # Average number of references to valid blocks.
system.cache_medium.tags.warmup_cycle               0                       # Cycle when the warmup percentage was hit.
system.cache_medium.tags.tag_accesses               0                       # Number of tag accesses
system.cache_medium.tags.data_accesses              0                       # Number of data accesses
system.cache_medium.tags.power_state.pwrStateResidencyTicks::UNDEFINED   3628009000                       # Cumulative time (in ticks) in various power states
system.clk_domain.clock                          1000                       # Clock period in ticks
system.clk_domain.voltage_domain.voltage            1                       # Voltage in Volts
system.dcache.demand_hits::.cpu.data           240015                       # number of demand (read+write) hits
system.dcache.demand_hits::total               240015                       # number of demand (read+write) hits
system.dcache.overall_hits::.cpu.data          240031                       # number of overall hits
system.dcache.overall_hits::total              240031                       # number of overall hits
system.dcache.demand_misses::.cpu.data           4122                       # number of demand (read+write) misses
system.dcache.demand_misses::total               4122                       # number of demand (read+write) misses
system.dcache.overall_misses::.cpu.data          4127                       # number of overall misses
system.dcache.overall_misses::total              4127                       # number of overall misses
system.dcache.demand_miss_latency::.cpu.data    181636000                       # number of demand (read+write) miss cycles
system.dcache.demand_miss_latency::total    181636000                       # number of demand (read+write) miss cycles
system.dcache.overall_miss_latency::.cpu.data    182023000                       # number of overall miss cycles
system.dcache.overall_miss_latency::total    182023000                       # number of overall miss cycles
system.dcache.demand_accesses::.cpu.data       244137                       # number of demand (read+write) accesses
system.dcache.demand_accesses::total           244137                       # number of demand (read+write) accesses
system.dcache.overall_accesses::.cpu.data       244158                       # number of overall (read+write) accesses
system.dcache.overall_accesses::total          244158                       # number of overall (read+write) accesses
system.dcache.demand_miss_rate::.cpu.data     0.016884                       # miss rate for demand accesses
system.dcache.demand_miss_rate::total        0.016884                       # miss rate for demand accesses
system.dcache.overall_miss_rate::.cpu.data     0.016903                       # miss rate for overall accesses
system.dcache.overall_miss_rate::total       0.016903                       # miss rate for overall accesses
system.dcache.demand_avg_miss_latency::.cpu.data 44065.016982                       # average overall miss latency
system.dcache.demand_avg_miss_latency::total 44065.016982                       # average overall miss latency
system.dcache.overall_avg_miss_latency::.cpu.data 44105.403441                       # average overall miss latency
system.dcache.overall_avg_miss_latency::total 44105.403441                       # average overall miss latency
system.dcache.blocked_cycles::no_mshrs              0                       # number of cycles access was blocked
system.dcache.blocked_cycles::no_targets            0                       # number of cycles access was blocked
system.dcache.blocked::no_mshrs                     0                       # number of cycles access was blocked
system.dcache.blocked::no_targets                   0                       # number of cycles access was blocked
system.dcache.avg_blocked_cycles::no_mshrs          nan                       # average number of cycles each access was blocked
system.dcache.avg_blocked_cycles::no_targets          nan                       # average number of cycles each access was blocked
system.dcache.writebacks::.writebacks            2414                       # number of writebacks
system.dcache.writebacks::total                  2414                       # number of writebacks
system.dcache.demand_mshr_misses::.cpu.data         4122                       # number of demand (read+write) MSHR misses
system.dcache.demand_mshr_misses::total          4122                       # number of demand (read+write) MSHR misses
system.dcache.overall_mshr_misses::.cpu.data         4127                       # number of overall MSHR misses
system.dcache.overall_mshr_misses::total         4127                       # number of overall MSHR misses
system.dcache.demand_mshr_miss_latency::.cpu.data    173394000                       # number of demand (read+write) MSHR miss cycles
[...]
system.dcache.tags.age_task_id_blocks_1024::2          183                       # Occupied blocks per task id
system.dcache.tags.age_task_id_blocks_1024::3           52                       # Occupied blocks per task id
system.dcache.tags.occ_task_id_percent::1024            1                       # Percentage of cache occupancy per task id
system.dcache.tags.tag_accesses               1542727                       # Number of tag accesses
system.dcache.tags.data_accesses              1542727                       # Number of data accesses
system.dcache.tags.power_state.pwrStateResidencyTicks::UNDEFINED  24305137000                       # Cumulative time (in ticks) in various power states
system.cache_large.blocked_cycles::no_mshrs            0                       # number of cycles access was blocked
system.cache_large.blocked_cycles::no_targets            0                       # number of cycles access was blocked
system.cache_large.blocked::no_mshrs                0                       # number of cycles access was blocked
system.cache_large.blocked::no_targets              0                       # number of cycles access was blocked
system.cache_large.avg_blocked_cycles::no_mshrs          nan                       # average number of cycles each access was blocked
system.cache_large.avg_blocked_cycles::no_targets          nan                       # average number of cycles each access was blocked
system.cache_large.replacements                     0                       # number of replacements
system.cache_large.power_state.pwrStateResidencyTicks::UNDEFINED  24305137000                       # Cumulative time (in ticks) in various power states
system.cache_large.tags.tagsinuse                   0                       # Cycle average of tags in use
system.cache_large.tags.total_refs                  0                       # Total number of references to valid blocks.
system.cache_large.tags.sampled_refs                0                       # Sample count of references to valid blocks.
system.cache_large.tags.avg_refs                  nan                       # Average number of references to valid blocks.
system.cache_large.tags.warmup_cycle                0                       # Cycle when the warmup percentage was hit.
system.cache_large.tags.tag_accesses                0                       # Number of tag accesses
system.cache_large.tags.data_accesses               0                       # Number of data accesses
system.cache_large.tags.power_state.pwrStateResidencyTicks::UNDEFINED  24305137000                       # Cumulative time (in ticks) in various power states
system.l2cache.demand_hits::.cpu.inst             176                       # number of demand (read+write) hits
system.l2cache.demand_hits::.cpu.data            7093                       # number of demand (read+write) hits
system.l2cache.demand_hits::total                7269                       # number of demand (read+write) hits
system.l2cache.overall_hits::.cpu.inst            176                       # number of overall hits
system.l2cache.overall_hits::.cpu.data           7093                       # number of overall hits
system.l2cache.overall_hits::total               7269                       # number of overall hits
system.l2cache.demand_misses::.cpu.inst          1459                       # number of demand (read+write) misses
system.l2cache.demand_misses::.cpu.data          8794                       # number of demand (read+write) misses
system.l2cache.demand_misses::total             10253                       # number of demand (read+write) misses
system.l2cache.overall_misses::.cpu.inst         1459                       # number of overall misses
system.l2cache.overall_misses::.cpu.data         8794                       # number of overall misses
system.l2cache.overall_misses::total            10253                       # number of overall misses
system.l2cache.demand_miss_latency::.cpu.inst     94514000                       # number of demand (read+write) miss cycles
system.l2cache.demand_miss_latency::.cpu.data    510234000                       # number of demand (read+write) miss cycles
system.l2cache.demand_miss_latency::total    604748000                       # number of demand (read+write) miss cycles
system.l2cache.overall_miss_latency::.cpu.inst     94514000                       # number of overall miss cycles
system.l2cache.overall_miss_latency::.cpu.data    510234000                       # number of overall miss cycles
system.l2cache.overall_miss_latency::total    604748000                       # number of overall miss cycles
system.l2cache.demand_accesses::.cpu.inst         1635                       # number of demand (read+write) accesses
system.l2cache.demand_accesses::.cpu.data        15887                       # number of demand (read+write) accesses
system.l2cache.demand_accesses::total           17522                       # number of demand (read+write) accesses
system.l2cache.overall_accesses::.cpu.inst         1635                       # number of overall (read+write) accesses
system.l2cache.overall_accesses::.cpu.data        15887                       # number of overall (read+write) accesses
system.l2cache.overall_accesses::total          17522                       # number of overall (read+write) accesses
system.l2cache.demand_miss_rate::.cpu.inst     0.892355                       # miss rate for demand accesses
system.l2cache.demand_miss_rate::.cpu.data     0.553534                       # miss rate for demand accesses
system.l2cache.demand_miss_rate::total       0.585150                       # miss rate for demand accesses
system.l2cache.overall_miss_rate::.cpu.inst     0.892355                       # miss rate for overall accesses
system.l2cache.overall_miss_rate::.cpu.data     0.553534                       # miss rate for overall accesses
system.l2cache.overall_miss_rate::total      0.585150                       # miss rate for overall accesses
system.l2cache.demand_avg_miss_latency::.cpu.inst 64779.986292                       # average overall miss latency
system.l2cache.demand_avg_miss_latency::.cpu.data 58020.695929                       # average overall miss latency
system.l2cache.demand_avg_miss_latency::total 58982.541695                       # average overall miss latency
system.l2cache.overall_avg_miss_latency::.cpu.inst 64779.986292                       # average overall miss latency
system.l2cache.overall_avg_miss_latency::.cpu.data 58020.695929                       # average overall miss latency
system.l2cache.overall_avg_miss_latency::total 58982.541695                       # average overall miss latency
system.l2cache.blocked_cycles::no_mshrs             0                       # number of cycles access was blocked
system.l2cache.blocked_cycles::no_targets            0                       # number of cycles access was blocked
system.l2cache.blocked::no_mshrs                    0                       # number of cycles access was blocked
system.l2cache.blocked::no_targets                  0                       # number of cycles access was blocked
system.l2cache.avg_blocked_cycles::no_mshrs          nan                       # average number of cycles each access was blocked
system.l2cache.avg_blocked_cycles::no_targets          nan                       # average number of cycles each access was blocked
system.l2cache.writebacks::.writebacks           8130                       # number of writebacks
system.l2cache.writebacks::total                 8130                       # number of writebacks
system.l2cache.demand_mshr_misses::.cpu.inst         1459                       # number of demand (read+write) MSHR misses
system.l2cache.demand_mshr_misses::.cpu.data         8794                       # number of demand (read+write) MSHR misses
system.l2cache.demand_mshr_misses::total        10253                       # number of demand (read+write) MSHR misses
system.l2cache.overall_mshr_misses::.cpu.inst         1459                       # number of overall MSHR misses
system.l2cache.overall_mshr_misses::.cpu.data         8794                       # number of overall MSHR misses
system.l2cache.overall_mshr_misses::total        10253                       # number of overall MSHR misses
system.l2cache.demand_mshr_miss_latency::.cpu.inst     91596000                       # number of demand (read+write) MSHR miss cycles
system.l2cache.demand_mshr_miss_latency::.cpu.data    492646000                       # number of demand (read+write) MSHR miss cycles
system.l2cache.demand_mshr_miss_latency::total    584242000                       # number of demand (read+write) MSHR miss cycles
system.l2cache.overall_mshr_miss_latency::.cpu.inst     91596000                       # number of overall MSHR miss cycles
system.l2cache.overall_mshr_miss_latency::.cpu.data    492646000                       # number of overall MSHR miss cycles
system.l2cache.overall_mshr_miss_latency::total    584242000                       # number of overall MSHR miss cycles
system.l2cache.demand_mshr_miss_rate::.cpu.inst     0.892355                       # mshr miss rate for demand accesses
system.l2cache.demand_mshr_miss_rate::.cpu.data     0.553534                       # mshr miss rate for demand accesses
system.l2cache.demand_mshr_miss_rate::total     0.585150                       # mshr miss rate for demand accesses
system.l2cache.overall_mshr_miss_rate::.cpu.inst     0.892355                       # mshr miss rate for overall accesses
system.l2cache.overall_mshr_miss_rate::.cpu.data     0.553534                       # mshr miss rate for overall accesses
system.l2cache.overall_mshr_miss_rate::total     0.585150                       # mshr miss rate for overall accesses
system.l2cache.demand_avg_mshr_miss_latency::.cpu.inst 62779.986292                       # average overall mshr miss latency
system.l2cache.demand_avg_mshr_miss_latency::.cpu.data 56020.695929                       # average overall mshr miss latency
system.l2cache.demand_avg_mshr_miss_latency::total 56982.541695                       # average overall mshr miss latency
system.l2cache.overall_avg_mshr_miss_latency::.cpu.inst 62779.986292                       # average overall mshr miss latency
system.l2cache.overall_avg_mshr_miss_latency::.cpu.data 56020.695929                       # average overall mshr miss latency
system.l2cache.overall_avg_mshr_miss_latency::total 56982.541695                       # average overall mshr miss latency
system.l2cache.replacements                     13350                       # number of replacements
system.l2cache.ReadReq_hits::.cpu.inst            176                       # number of ReadReq hits
system.l2cache.ReadReq_hits::.cpu.data           7093                       # number of ReadReq hits
system.l2cache.ReadReq_hits::total               7269                       # number of ReadReq hits
system.l2cache.ReadReq_misses::.cpu.inst         1459                       # number of ReadReq misses
system.l2cache.ReadReq_misses::.cpu.data         8794                       # number of ReadReq misses
system.l2cache.ReadReq_misses::total            10253                       # number of ReadReq misses
system.l2cache.ReadReq_miss_latency::.cpu.inst     94514000                       # number of ReadReq miss cycles
system.l2cache.ReadReq_miss_latency::.cpu.data    510234000                       # number of ReadReq miss cycles
system.l2cache.ReadReq_miss_latency::total    604748000                       # number of ReadReq miss cycles
system.l2cache.ReadReq_accesses::.cpu.inst         1635                       # number of ReadReq accesses(hits+misses)
system.l2cache.ReadReq_accesses::.cpu.data        15887                       # number of ReadReq accesses(hits+misses)
system.l2cache.ReadReq_accesses::total          17522                       # number of ReadReq accesses(hits+misses)
system.l2cache.ReadReq_miss_rate::.cpu.inst     0.892355                       # miss rate for ReadReq accesses
system.l2cache.ReadReq_miss_rate::.cpu.data     0.553534                       # miss rate for ReadReq accesses
system.l2cache.ReadReq_miss_rate::total      0.585150                       # miss rate for ReadReq accesses
system.l2cache.ReadReq_avg_miss_latency::.cpu.inst 64779.986292                       # average ReadReq miss latency
system.l2cache.ReadReq_avg_miss_latency::.cpu.data 58020.695929                       # average ReadReq miss latency
system.l2cache.ReadReq_avg_miss_latency::total 58982.541695                       # average ReadReq miss latency
system.l2cache.ReadReq_mshr_misses::.cpu.inst         1459                       # number of ReadReq MSHR misses
system.l2cache.ReadReq_mshr_misses::.cpu.data         8794                       # number of ReadReq MSHR misses
system.l2cache.ReadReq_mshr_misses::total        10253                       # number of ReadReq MSHR misses
system.l2cache.ReadReq_mshr_miss_latency::.cpu.inst     91596000                       # number of ReadReq MSHR miss cycles
system.l2cache.ReadReq_mshr_miss_latency::.cpu.data    492646000                       # number of ReadReq MSHR miss cycles
system.l2cache.ReadReq_mshr_miss_latency::total    584242000                       # number of ReadReq MSHR miss cycles
system.l2cache.ReadReq_mshr_miss_rate::.cpu.inst     0.892355                       # mshr miss rate for ReadReq accesses
system.l2cache.ReadReq_mshr_miss_rate::.cpu.data     0.553534                       # mshr miss rate for ReadReq accesses
system.l2cache.ReadReq_mshr_miss_rate::total     0.585150                       # mshr miss rate for ReadReq accesses
system.l2cache.ReadReq_avg_mshr_miss_latency::.cpu.inst 62779.986292                       # average ReadReq mshr miss latency
system.l2cache.ReadReq_avg_mshr_miss_latency::.cpu.data 56020.695929                       # average ReadReq mshr miss latency
system.l2cache.ReadReq_avg_mshr_miss_latency::total 56982.541695                       # average ReadReq mshr miss latency
system.l2cache.WritebackDirty_hits::.writebacks        10885                       # number of WritebackDirty hits
system.l2cache.WritebackDirty_hits::total        10885                       # number of WritebackDirty hits
system.l2cache.WritebackDirty_accesses::.writebacks        10885                       # number of WritebackDirty accesses(hits+misses)
system.l2cache.WritebackDirty_accesses::total        10885                       # number of WritebackDirty accesses(hits+misses)
system.l2cache.power_state.pwrStateResidencyTicks::UNDEFINED  24305137000                       # Cumulative time (in ticks) in various power states
system.l2cache.tags.tagsinuse              510.237748                       # Cycle average of tags in use
system.l2cache.tags.total_refs                  28407                       # Total number of references to valid blocks.
system.l2cache.tags.sampled_refs                13862                       # Sample count of references to valid blocks.
system.l2cache.tags.avg_refs                 2.049271                       # Average number of references to valid blocks.
system.l2cache.tags.warmup_cycle                78000                       # Cycle when the warmup percentage was hit.
system.l2cache.tags.occ_blocks::.writebacks    35.487022                       # Average occupied blocks per requestor
system.l2cache.tags.occ_blocks::.cpu.inst    13.903084                       # Average occupied blocks per requestor
system.l2cache.tags.occ_blocks::.cpu.data   460.847642                       # Average occupied blocks per requestor
system.l2cache.tags.occ_percent::.writebacks     0.069311                       # Average percentage of cache occupancy
system.l2cache.tags.occ_percent::.cpu.inst     0.027154                       # Average percentage of cache occupancy
system.l2cache.tags.occ_percent::.cpu.data     0.900093                       # Average percentage of cache occupancy
system.l2cache.tags.occ_percent::total       0.996558                       # Average percentage of cache occupancy
system.l2cache.tags.occ_task_id_blocks::1024          512                       # Occupied blocks per task id
system.l2cache.tags.age_task_id_blocks_1024::0            2                       # Occupied blocks per task id
system.l2cache.tags.age_task_id_blocks_1024::1           20                       # Occupied blocks per task id
system.l2cache.tags.age_task_id_blocks_1024::2          190                       # Occupied blocks per task id
system.l2cache.tags.age_task_id_blocks_1024::3          300                       # Occupied blocks per task id
system.l2cache.tags.occ_task_id_percent::1024            1                       # Percentage of cache occupancy per task id
system.l2cache.tags.tag_accesses                42269                       # Number of tag accesses
system.l2cache.tags.data_accesses               42269                       # Number of data accesses
system.l2cache.tags.power_state.pwrStateResidencyTicks::UNDEFINED  24305137000                       # Cumulative time (in ticks) in various power states
system.l2bar.trans_dist::ReadReq                17522                       # Transaction distribution
system.l2bar.trans_dist::ReadResp               17522                       # Transaction distribution
system.l2bar.trans_dist::WritebackDirty         10885                       # Transaction distribution
system.l2bar.pkt_count_system.dcache.mem_side::system.l2cache.cpu_side        42659                       # Packet count per connected master and slave (bytes)
system.l2bar.pkt_count_system.icache.mem_side::system.l2cache.cpu_side         3270                       # Packet count per connected master and slave (bytes)
system.l2bar.pkt_count::total                   45929                       # Packet count per connected master and slave (bytes)
system.l2bar.pkt_size_system.dcache.mem_side::system.l2cache.cpu_side      1713408                       # Cumulative packet size per connected master and slave (bytes)
system.l2bar.pkt_size_system.icache.mem_side::system.l2cache.cpu_side       104640                       # Cumulative packet size per connected master and slave (bytes)
system.l2bar.pkt_size::total                  1818048                       # Cumulative packet size per connected master and slave (bytes)
system.l2bar.respLayer1.occupancy             8175000                       # Layer occupancy (ticks)
system.l2bar.respLayer1.utilization               0.0                       # Layer utilization (%)
system.l2bar.reqLayer0.occupancy             71947000                       # Layer occupancy (ticks)
system.l2bar.reqLayer0.utilization                0.3                       # Layer utilization (%)
system.l2bar.respLayer0.occupancy            79435000                       # Layer occupancy (ticks)
system.l2bar.respLayer0.utilization               0.3                       # Layer utilization (%)
system.l2bar.power_state.pwrStateResidencyTicks::UNDEFINED  24305137000                       # Cumulative time (in ticks) in various power states
system.cpu.dtb.walker.power_state.pwrStateResidencyTicks::UNDEFINED  24305137000                       # Cumulative time (in ticks) in various power states
system.cpu.interrupts.clk_domain.clock          16000                       # Clock period in ticks
system.cpu.itb.walker.power_state.pwrStateResidencyTicks::UNDEFINED  24305137000                       # Cumulative time (in ticks) in various power states
system.cpu.power_state.numTransitions               1                       # Number of power state transitions
system.cpu.power_state.pwrStateResidencyTicks::ON  24305137000                       # Cumulative time (in ticks) in various power states

---------- End Simulation Statistics   ----------
