
---------- Begin Simulation Statistics ----------
final_tick                               422449139000                       # Number of ticks from beginning of simulation (restored from checkpoints and never reset)
host_inst_rate                                 220941                       # Simulator instruction rate (inst/s)
host_mem_usage                                 734800                       # Number of bytes of host memory used
host_op_rate                                   423453                       # Simulator op (including micro ops) rate (op/s)
host_seconds                                    22.63                       # Real time elapsed on the host
host_tick_rate                            18667167342                       # Simulator tick rate (ticks/s)
sim_freq                                 1000000000000                       # Frequency of simulated ticks
sim_insts                                     5000000                       # Number of instructions simulated
sim_ops                                       9582978                       # Number of ops (including micro ops) simulated
sim_seconds                                  0.422449                       # Number of seconds simulated
sim_ticks                                422449139000                       # Number of ticks simulated
system.cachebus.snoop_filter.hit_multi_requests            0                       # Number of requests hitting in the snoop filter with multiple (>1) holders of the requested data.
system.cachebus.snoop_filter.hit_multi_snoops            0                       # Number of snoops hitting in the snoop filter with multiple (>1) holders of the requested data.
system.cachebus.snoop_filter.hit_single_requests            0                       # Number of requests hitting in the snoop filter with a single holder of the requested data.
system.cachebus.snoop_filter.hit_single_snoops            0                       # Number of snoops hitting in the snoop filter with a single holder of the requested data.
system.cachebus.snoop_filter.tot_requests            0                       # Total number of requests made to the snoop filter.
system.cachebus.snoop_filter.tot_snoops             0                       # Total number of snoops made to the snoop filter.
system.cpu.Branches                           1122531                       # Number of branches fetched
system.cpu.committedInsts                     5000000                       # Number of instructions committed
system.cpu.committedOps                       9582978                       # Number of ops (including micro ops) committed
system.cpu.dtb.rdAccesses                     1198833                       # TLB accesses on read requests
system.cpu.dtb.rdMisses                           387                       # TLB misses on read requests
system.cpu.dtb.wrAccesses                      784893                       # TLB accesses on write requests
system.cpu.dtb.wrMisses                           220                       # TLB misses on write requests
system.cpu.idle_fraction                            0                       # Percentage of idle cycles
system.cpu.itb.rdAccesses                           0                       # TLB accesses on read requests
system.cpu.itb.rdMisses                             0                       # TLB misses on read requests
system.cpu.itb.wrAccesses                     6633581                       # TLB accesses on write requests
system.cpu.itb.wrMisses                           330                       # TLB misses on write requests
system.cpu.not_idle_fraction                        1                       # Percentage of non-idle cycles
system.cpu.numCycles                        422449139                       # number of cpu cycles simulated
system.cpu.numWorkItemsCompleted                    0                       # number of work items this cpu completed
system.cpu.numWorkItemsStarted                      0                       # number of work items this cpu started
system.cpu.num_busy_cycles                  422449139                       # Number of busy cycles
system.cpu.num_cc_register_reads              5236984                       # number of times the CC registers were read
system.cpu.num_cc_register_writes             3059706                       # number of times the CC registers were written
system.cpu.num_conditional_control_insts       829351                       # number of instructions that are conditional controls
system.cpu.num_fp_alu_accesses                 318682                       # Number of float alu accesses
system.cpu.num_fp_insts                        318682                       # number of float instructions
system.cpu.num_fp_register_reads               577317                       # number of times the floating registers were read
system.cpu.num_fp_register_writes              273831                       # number of times the floating registers were written
system.cpu.num_func_calls                      184948                       # number of times a function call or return occured
system.cpu.num_idle_cycles                          0                       # Number of idle cycles
system.cpu.num_int_alu_accesses               9314273                       # Number of integer alu accesses
system.cpu.num_int_insts                      9314273                       # number of integer instructions
system.cpu.num_int_register_reads            17903283                       # number of times the integer registers were read
system.cpu.num_int_register_writes            7402192                       # number of times the integer registers were written
system.cpu.num_load_insts                     1198498                       # Number of load instructions
system.cpu.num_mem_refs                       1983375                       # number of memory refs
system.cpu.num_store_insts                     784877                       # Number of store instructions
system.cpu.num_vec_alu_accesses                     0                       # Number of vector alu accesses
system.cpu.num_vec_insts                            0                       # number of vector instructions
system.cpu.num_vec_register_reads                   0                       # number of times the vector registers were read
system.cpu.num_vec_register_writes                  0                       # number of times the vector registers were written
system.cpu.op_class::No_OpClass                 41721      0.44%      0.44% # Class of executed instruction
system.cpu.op_class::IntAlu                   7333500     76.52%     76.96% # Class of executed instruction
system.cpu.op_class::IntMult                    19041      0.20%     77.16% # Class of executed instruction
system.cpu.op_class::IntDiv                      1584      0.02%     77.18% # Class of executed instruction
system.cpu.op_class::FloatAdd                   12960      0.14%     77.31% # Class of executed instruction
system.cpu.op_class::FloatCmp                       0      0.00%     77.31% # Class of executed instruction
system.cpu.op_class::FloatCvt                       0      0.00%     77.31% # Class of executed instruction
system.cpu.op_class::FloatMult                      0      0.00%     77.31% # Class of executed instruction
system.cpu.op_class::FloatMultAcc                   0      0.00%     77.31% # Class of executed instruction
system.cpu.op_class::FloatDiv                       0      0.00%     77.31% # Class of executed instruction
system.cpu.op_class::FloatMisc                      0      0.00%     77.31% # Class of executed instruction
system.cpu.op_class::FloatSqrt                      0      0.00%     77.31% # Class of executed instruction
system.cpu.op_class::SimdAdd                     2962      0.03%     77.34% # Class of executed instruction
system.cpu.op_class::SimdAddAcc                     0      0.00%     77.34% # Class of executed instruction
system.cpu.op_class::SimdAlu                    25710      0.27%     77.61% # Class of executed instruction
system.cpu.op_class::SimdCmp                      618      0.01%     77.62% # Class of executed instruction
system.cpu.op_class::SimdCvt                    12850      0.13%     77.75% # Class of executed instruction
system.cpu.op_class::SimdMisc                   30260      0.32%     78.07% # Class of executed instruction
system.cpu.op_class::SimdMult                       0      0.00%     78.07% # Class of executed instruction
system.cpu.op_class::SimdMultAcc                    0      0.00%     78.07% # Class of executed instruction
system.cpu.op_class::SimdShift                    554      0.01%     78.07% # Class of executed instruction
system.cpu.op_class::SimdShiftAcc                   0      0.00%     78.07% # Class of executed instruction
system.cpu.op_class::SimdDiv                        0      0.00%     78.07% # Class of executed instruction
system.cpu.op_class::SimdSqrt                       0      0.00%     78.07% # Class of executed instruction
system.cpu.op_class::SimdFloatAdd               35976      0.38%     78.45% # Class of executed instruction
system.cpu.op_class::SimdFloatAlu                   0      0.00%     78.45% # Class of executed instruction
system.cpu.op_class::SimdFloatCmp                 694      0.01%     78.45% # Class of executed instruction
system.cpu.op_class::SimdFloatCvt               24830      0.26%     78.71% # Class of executed instruction
system.cpu.op_class::SimdFloatDiv                3158      0.03%     78.75% # Class of executed instruction
system.cpu.op_class::SimdFloatMisc                  0      0.00%     78.75% # Class of executed instruction
system.cpu.op_class::SimdFloatMult              51305      0.54%     79.28% # Class of executed instruction
system.cpu.op_class::SimdFloatMultAcc               0      0.00%     79.28% # Class of executed instruction
system.cpu.op_class::SimdFloatSqrt               2108      0.02%     79.30% # Class of executed instruction
system.cpu.op_class::SimdReduceAdd                  0      0.00%     79.30% # Class of executed instruction
system.cpu.op_class::SimdReduceAlu                  0      0.00%     79.30% # Class of executed instruction
system.cpu.op_class::SimdReduceCmp                  0      0.00%     79.30% # Class of executed instruction
system.cpu.op_class::SimdFloatReduceAdd             0      0.00%     79.30% # Class of executed instruction
system.cpu.op_class::SimdFloatReduceCmp             0      0.00%     79.30% # Class of executed instruction
system.cpu.op_class::SimdAes                        0      0.00%     79.30% # Class of executed instruction
system.cpu.op_class::SimdAesMix                     0      0.00%     79.30% # Class of executed instruction
system.cpu.op_class::SimdSha1Hash                   0      0.00%     79.30% # Class of executed instruction
system.cpu.op_class::SimdSha1Hash2                  0      0.00%     79.30% # Class of executed instruction
system.cpu.op_class::SimdSha256Hash                 0      0.00%     79.30% # Class of executed instruction
system.cpu.op_class::SimdSha256Hash2                0      0.00%     79.30% # Class of executed instruction
system.cpu.op_class::SimdShaSigma2                  0      0.00%     79.30% # Class of executed instruction
system.cpu.op_class::SimdShaSigma3                  0      0.00%     79.30% # Class of executed instruction
system.cpu.op_class::SimdPredAlu                    0      0.00%     79.30% # Class of executed instruction
system.cpu.op_class::MemRead                  1151003     12.01%     91.31% # Class of executed instruction
system.cpu.op_class::MemWrite                  764480      7.98%     99.29% # Class of executed instruction
system.cpu.op_class::FloatMemRead               47495      0.50%     99.79% # Class of executed instruction
system.cpu.op_class::FloatMemWrite              20397      0.21%    100.00% # Class of executed instruction
system.cpu.op_class::IprAccess                      0      0.00%    100.00% # Class of executed instruction
system.cpu.op_class::InstPrefetch                   0      0.00%    100.00% # Class of executed instruction
system.cpu.op_class::total                    9583206                       # Class of executed instruction
system.cpu.workload.numSyscalls                    87                       # Number of system calls
system.membus.snoop_filter.hit_multi_requests            0                       # Number of requests hitting in the snoop filter with multiple (>1) holders of the requested data.
system.membus.snoop_filter.hit_multi_snoops            0                       # Number of snoops hitting in the snoop filter with multiple (>1) holders of the requested data.
system.membus.snoop_filter.hit_single_requests            0                       # Number of requests hitting in the snoop filter with a single holder of the requested data.
system.membus.snoop_filter.hit_single_snoops            0                       # Number of snoops hitting in the snoop filter with a single holder of the requested data.
system.membus.snoop_filter.tot_requests             0                       # Total number of requests made to the snoop filter.
system.membus.snoop_filter.tot_snoops               0                       # Total number of snoops made to the snoop filter.
system.membus.trans_dist::ReadReq             7821239                       # Transaction distribution
system.membus.trans_dist::ReadResp            7821238                       # Transaction distribution
system.membus.trans_dist::WriteReq             784809                       # Transaction distribution
system.membus.trans_dist::WriteResp            784809                       # Transaction distribution
system.membus.trans_dist::SoftPFReq             11031                       # Transaction distribution
system.membus.trans_dist::SoftPFResp            11031                       # Transaction distribution
system.membus.pkt_count_system.cpu.icache_port::system.mem_ctrl.port     13267162                       # Packet count per connected master and slave (bytes)
system.membus.pkt_count_system.cpu.icache_port::total     13267162                       # Packet count per connected master and slave (bytes)
system.membus.pkt_count_system.memobj.mem_side::system.mem_ctrl.port      3966995                       # Packet count per connected master and slave (bytes)
system.membus.pkt_count_system.memobj.mem_side::total      3966995                       # Packet count per connected master and slave (bytes)
system.membus.pkt_count::total               17234157                       # Packet count per connected master and slave (bytes)
system.membus.pkt_size_system.cpu.icache_port::system.mem_ctrl.port     53068648                       # Cumulative packet size per connected master and slave (bytes)
system.membus.pkt_size_system.cpu.icache_port::total     53068648                       # Cumulative packet size per connected master and slave (bytes)
system.membus.pkt_size_system.memobj.mem_side::system.mem_ctrl.port     13191608                       # Cumulative packet size per connected master and slave (bytes)
system.membus.pkt_size_system.memobj.mem_side::total     13191608                       # Cumulative packet size per connected master and slave (bytes)
system.membus.pkt_size::total                66260256                       # Cumulative packet size per connected master and slave (bytes)
system.membus.snoops                                0                       # Total snoops (count)
system.membus.snoopTraffic                          0                       # Total snoop traffic (bytes)
system.membus.snoop_fanout::samples           8617079                       # Request fanout histogram
system.membus.snoop_fanout::mean                    0                       # Request fanout histogram
system.membus.snoop_fanout::stdev                   0                       # Request fanout histogram
system.membus.snoop_fanout::underflows              0      0.00%      0.00% # Request fanout histogram
system.membus.snoop_fanout::0                 8617079    100.00%    100.00% # Request fanout histogram
system.membus.snoop_fanout::1                       0      0.00%    100.00% # Request fanout histogram
system.membus.snoop_fanout::overflows               0      0.00%    100.00% # Request fanout histogram
system.membus.snoop_fanout::min_value               0                       # Request fanout histogram
system.membus.snoop_fanout::max_value               0                       # Request fanout histogram
system.membus.snoop_fanout::total             8617079                       # Request fanout histogram
system.membus.reqLayer2.occupancy          9401888000                       # Layer occupancy (ticks)
system.membus.reqLayer2.utilization               2.2                       # Layer utilization (%)
system.membus.respLayer1.occupancy         3529458500                       # Layer occupancy (ticks)
system.membus.respLayer1.utilization              0.8                       # Layer utilization (%)
system.membus.respLayer0.occupancy        15069052000                       # Layer occupancy (ticks)
system.membus.respLayer0.utilization              3.6                       # Layer utilization (%)
system.membus.power_state.pwrStateResidencyTicks::UNDEFINED 422449139000                       # Cumulative time (in ticks) in various power states
system.mem_ctrl.bytes_read::.cpu.inst        53068648                       # Number of bytes read from this memory
system.mem_ctrl.bytes_read::.cpu.data         7809559                       # Number of bytes read from this memory
system.mem_ctrl.bytes_read::total            60878207                       # Number of bytes read from this memory
system.mem_ctrl.bytes_inst_read::.cpu.inst     53068648                       # Number of instructions bytes read from this memory
system.mem_ctrl.bytes_inst_read::total       53068648                       # Number of instructions bytes read from this memory
system.mem_ctrl.bytes_written::.cpu.data      5382049                       # Number of bytes written to this memory
system.mem_ctrl.bytes_written::total          5382049                       # Number of bytes written to this memory
system.mem_ctrl.num_reads::.cpu.inst          6633581                       # Number of read requests responded to by this memory
system.mem_ctrl.num_reads::.cpu.data          1198688                       # Number of read requests responded to by this memory
system.mem_ctrl.num_reads::total              7832269                       # Number of read requests responded to by this memory
system.mem_ctrl.num_writes::.cpu.data          784809                       # Number of write requests responded to by this memory
system.mem_ctrl.num_writes::total              784809                       # Number of write requests responded to by this memory
system.mem_ctrl.bw_read::.cpu.inst          125621390                       # Total read bandwidth from this memory (bytes/s)
system.mem_ctrl.bw_read::.cpu.data           18486389                       # Total read bandwidth from this memory (bytes/s)
system.mem_ctrl.bw_read::total              144107779                       # Total read bandwidth from this memory (bytes/s)
system.mem_ctrl.bw_inst_read::.cpu.inst     125621390                       # Instruction read bandwidth from this memory (bytes/s)
system.mem_ctrl.bw_inst_read::total         125621390                       # Instruction read bandwidth from this memory (bytes/s)
system.mem_ctrl.bw_write::.cpu.data          12740111                       # Write bandwidth from this memory (bytes/s)
system.mem_ctrl.bw_write::total              12740111                       # Write bandwidth from this memory (bytes/s)
system.mem_ctrl.bw_total::.cpu.inst         125621390                       # Total bandwidth to/from this memory (bytes/s)
system.mem_ctrl.bw_total::.cpu.data          31226500                       # Total bandwidth to/from this memory (bytes/s)
system.mem_ctrl.bw_total::total             156847890                       # Total bandwidth to/from this memory (bytes/s)
system.mem_ctrl.avgPriority_.cpu.inst::samples   6633581.00                       # Average QoS priority value for accepted requests
system.mem_ctrl.avgPriority_.cpu.data::samples   1084529.00                       # Average QoS priority value for accepted requests
system.mem_ctrl.priorityMinLatency       0.000000018750                       # per QoS priority minimum request to response latency (s)
system.mem_ctrl.priorityMaxLatency       0.017419494500                       # per QoS priority maximum request to response latency (s)
system.mem_ctrl.numReadWriteTurnArounds          3772                       # Number of turnarounds from READ to WRITE
system.mem_ctrl.numWriteReadTurnArounds          3772                       # Number of turnarounds from WRITE to READ
system.mem_ctrl.numStayReadState             16204484                       # Number of times bus staying in READ state
system.mem_ctrl.numStayWriteState               56803                       # Number of times bus staying in WRITE state
system.mem_ctrl.readReqs                      7832270                       # Number of read requests accepted
system.mem_ctrl.writeReqs                      784809                       # Number of write requests accepted
system.mem_ctrl.readBursts                    7832270                       # Number of DRAM read bursts, including those serviced by the write queue
system.mem_ctrl.writeBursts                    784809                       # Number of DRAM write bursts, including those merged in the write queue
system.mem_ctrl.servicedByWrQ                  174695                       # Number of DRAM read bursts serviced by the write queue
system.mem_ctrl.mergedWrBursts                 724274                       # Number of DRAM write bursts merged with an existing one
system.mem_ctrl.neitherReadNorWriteReqs             0                       # Number of requests that are neither read nor write
system.mem_ctrl.perBankRdBursts::0             792610                       # Per bank write bursts
system.mem_ctrl.perBankRdBursts::1             233016                       # Per bank write bursts
system.mem_ctrl.perBankRdBursts::2             334316                       # Per bank write bursts
system.mem_ctrl.perBankRdBursts::3             241022                       # Per bank write bursts
system.mem_ctrl.perBankRdBursts::4            1214466                       # Per bank write bursts
system.mem_ctrl.perBankRdBursts::5             304837                       # Per bank write bursts
system.mem_ctrl.perBankRdBursts::6            1560122                       # Per bank write bursts
system.mem_ctrl.perBankRdBursts::7             399874                       # Per bank write bursts
system.mem_ctrl.perBankRdBursts::8             510417                       # Per bank write bursts
system.mem_ctrl.perBankRdBursts::9             309209                       # Per bank write bursts
system.mem_ctrl.perBankRdBursts::10             89407                       # Per bank write bursts
system.mem_ctrl.perBankRdBursts::11            163066                       # Per bank write bursts
system.mem_ctrl.perBankRdBursts::12            595878                       # Per bank write bursts
system.mem_ctrl.perBankRdBursts::13            251431                       # Per bank write bursts
system.mem_ctrl.perBankRdBursts::14            203431                       # Per bank write bursts
system.mem_ctrl.perBankRdBursts::15            454473                       # Per bank write bursts
system.mem_ctrl.perBankWrBursts::0               1462                       # Per bank write bursts
system.mem_ctrl.perBankWrBursts::1               2789                       # Per bank write bursts
system.mem_ctrl.perBankWrBursts::2               7566                       # Per bank write bursts
system.mem_ctrl.perBankWrBursts::3               5242                       # Per bank write bursts
system.mem_ctrl.perBankWrBursts::4              13360                       # Per bank write bursts
system.mem_ctrl.perBankWrBursts::5              10942                       # Per bank write bursts
system.mem_ctrl.perBankWrBursts::6                341                       # Per bank write bursts
system.mem_ctrl.perBankWrBursts::7               1030                       # Per bank write bursts
system.mem_ctrl.perBankWrBursts::8               3687                       # Per bank write bursts
system.mem_ctrl.perBankWrBursts::9                490                       # Per bank write bursts
system.mem_ctrl.perBankWrBursts::10               752                       # Per bank write bursts
system.mem_ctrl.perBankWrBursts::11              7108                       # Per bank write bursts
system.mem_ctrl.perBankWrBursts::12              2978                       # Per bank write bursts
system.mem_ctrl.perBankWrBursts::13               759                       # Per bank write bursts
system.mem_ctrl.perBankWrBursts::14               703                       # Per bank write bursts
system.mem_ctrl.perBankWrBursts::15              1309                       # Per bank write bursts
system.mem_ctrl.avgRdQLen                        1.00                       # Average read queue length when enqueuing
system.mem_ctrl.avgWrQLen                       26.13                       # Average write queue length when enqueuing
system.mem_ctrl.totQLat                   27035259000                       # Total ticks spent queuing
system.mem_ctrl.totBusLat                 38287875000                       # Total ticks spent in databus transfers
system.mem_ctrl.totMemAccLat             170614790250                       # Total ticks spent from burst creation until serviced by the DRAM
system.mem_ctrl.avgQLat                       3530.52                       # Average queueing delay per DRAM burst
system.mem_ctrl.avgBusLat                     5000.00                       # Average bus latency per DRAM burst
system.mem_ctrl.avgMemAccLat                 22280.52                       # Average memory access latency per DRAM burst
system.mem_ctrl.numRdRetry                          0                       # Number of times read queue was full causing retry
system.mem_ctrl.numWrRetry                          0                       # Number of times write queue was full causing retry
system.mem_ctrl.readRowHits                   6854750                       # Number of row buffer hits during reads
system.mem_ctrl.writeRowHits                    53194                       # Number of row buffer hits during writes
system.mem_ctrl.readRowHitRate                  89.52                       # Row buffer hit rate for reads
system.mem_ctrl.writeRowHitRate                 87.87                       # Row buffer hit rate for writes
system.mem_ctrl.readPktSize::0                 119535                       # Read request sizes (log2)
system.mem_ctrl.readPktSize::1                  21674                       # Read request sizes (log2)
system.mem_ctrl.readPktSize::2                 203274                       # Read request sizes (log2)
system.mem_ctrl.readPktSize::3                7487787                       # Read request sizes (log2)
system.mem_ctrl.readPktSize::4                      0                       # Read request sizes (log2)
system.mem_ctrl.readPktSize::5                      0                       # Read request sizes (log2)
system.mem_ctrl.readPktSize::6                      0                       # Read request sizes (log2)
system.mem_ctrl.writePktSize::0                 38063                       # Write request sizes (log2)
system.mem_ctrl.writePktSize::1                 15038                       # Write request sizes (log2)
system.mem_ctrl.writePktSize::2                134931                       # Write request sizes (log2)
system.mem_ctrl.writePktSize::3                596777                       # Write request sizes (log2)
system.mem_ctrl.writePktSize::4                     0                       # Write request sizes (log2)
system.mem_ctrl.writePktSize::5                     0                       # Write request sizes (log2)
system.mem_ctrl.writePktSize::6                     0                       # Write request sizes (log2)
system.mem_ctrl.rdQLenPdf::0                  7657243                       # What read queue length does an incoming req see
system.mem_ctrl.rdQLenPdf::1                      332                       # What read queue length does an incoming req see
system.mem_ctrl.rdQLenPdf::2                        0                       # What read queue length does an incoming req see
system.mem_ctrl.rdQLenPdf::3                        0                       # What read queue length does an incoming req see
system.mem_ctrl.rdQLenPdf::4                        0                       # What read queue length does an incoming req see
system.mem_ctrl.rdQLenPdf::5                        0                       # What read queue length does an incoming req see
system.mem_ctrl.rdQLenPdf::6                        0                       # What read queue length does an incoming req see
system.mem_ctrl.rdQLenPdf::7                        0                       # What read queue length does an incoming req see
system.mem_ctrl.rdQLenPdf::8                        0                       # What read queue length does an incoming req see
system.mem_ctrl.rdQLenPdf::9                        0                       # What read queue length does an incoming req see
system.mem_ctrl.rdQLenPdf::10                       0                       # What read queue length does an incoming req see
system.mem_ctrl.rdQLenPdf::11                       0                       # What read queue length does an incoming req see
system.mem_ctrl.rdQLenPdf::12                       0                       # What read queue length does an incoming req see
system.mem_ctrl.rdQLenPdf::13                       0                       # What read queue length does an incoming req see
system.mem_ctrl.rdQLenPdf::14                       0                       # What read queue length does an incoming req see
system.mem_ctrl.rdQLenPdf::15                       0                       # What read queue length does an incoming req see
system.mem_ctrl.rdQLenPdf::16                       0                       # What read queue length does an incoming req see
system.mem_ctrl.rdQLenPdf::17                       0                       # What read queue length does an incoming req see
system.mem_ctrl.rdQLenPdf::18                       0                       # What read queue length does an incoming req see
system.mem_ctrl.rdQLenPdf::19                       0                       # What read queue length does an incoming req see
system.mem_ctrl.rdQLenPdf::20                       0                       # What read queue length does an incoming req see
system.mem_ctrl.rdQLenPdf::21                       0                       # What read queue length does an incoming req see
system.mem_ctrl.rdQLenPdf::22                       0                       # What read queue length does an incoming req see
system.mem_ctrl.rdQLenPdf::23                       0                       # What read queue length does an incoming req see
system.mem_ctrl.rdQLenPdf::24                       0                       # What read queue length does an incoming req see
system.mem_ctrl.rdQLenPdf::25                       0                       # What read queue length does an incoming req see
system.mem_ctrl.rdQLenPdf::26                       0                       # What read queue length does an incoming req see
system.mem_ctrl.rdQLenPdf::27                       0                       # What read queue length does an incoming req see
system.mem_ctrl.rdQLenPdf::28                       0                       # What read queue length does an incoming req see
system.mem_ctrl.rdQLenPdf::29                       0                       # What read queue length does an incoming req see
system.mem_ctrl.rdQLenPdf::30                       0                       # What read queue length does an incoming req see
system.mem_ctrl.rdQLenPdf::31                       0                       # What read queue length does an incoming req see
system.mem_ctrl.wrQLenPdf::0                        1                       # What write queue length does an incoming req see
system.mem_ctrl.wrQLenPdf::1                        1                       # What write queue length does an incoming req see
system.mem_ctrl.wrQLenPdf::2                        1                       # What write queue length does an incoming req see
system.mem_ctrl.wrQLenPdf::3                        1                       # What write queue length does an incoming req see
system.mem_ctrl.wrQLenPdf::4                        1                       # What write queue length does an incoming req see
system.mem_ctrl.wrQLenPdf::5                        1                       # What write queue length does an incoming req see
system.mem_ctrl.wrQLenPdf::6                        1                       # What write queue length does an incoming req see
system.mem_ctrl.wrQLenPdf::7                        1                       # What write queue length does an incoming req see
system.mem_ctrl.wrQLenPdf::8                        1                       # What write queue length does an incoming req see
system.mem_ctrl.wrQLenPdf::9                        1                       # What write queue length does an incoming req see
system.mem_ctrl.wrQLenPdf::10                       1                       # What write queue length does an incoming req see
system.mem_ctrl.wrQLenPdf::11                       1                       # What write queue length does an incoming req see
system.mem_ctrl.wrQLenPdf::12                       1                       # What write queue length does an incoming req see
system.mem_ctrl.wrQLenPdf::13                       1                       # What write queue length does an incoming req see
system.mem_ctrl.wrQLenPdf::14                       1                       # What write queue length does an incoming req see
system.mem_ctrl.wrQLenPdf::15                      82                       # What write queue length does an incoming req see
system.mem_ctrl.wrQLenPdf::16                      82                       # What write queue length does an incoming req see
system.mem_ctrl.wrQLenPdf::17                    3774                       # What write queue length does an incoming req see
system.mem_ctrl.wrQLenPdf::18                    3773                       # What write queue length does an incoming req see
system.mem_ctrl.wrQLenPdf::19                    3773                       # What write queue length does an incoming req see
system.mem_ctrl.wrQLenPdf::20                    3772                       # What write queue length does an incoming req see
system.mem_ctrl.wrQLenPdf::21                    3772                       # What write queue length does an incoming req see
system.mem_ctrl.wrQLenPdf::22                    3772                       # What write queue length does an incoming req see
system.mem_ctrl.wrQLenPdf::23                    3772                       # What write queue length does an incoming req see
system.mem_ctrl.wrQLenPdf::24                    3772                       # What write queue length does an incoming req see
system.mem_ctrl.wrQLenPdf::25                    3772                       # What write queue length does an incoming req see
system.mem_ctrl.wrQLenPdf::26                    3772                       # What write queue length does an incoming req see
system.mem_ctrl.wrQLenPdf::27                    3772                       # What write queue length does an incoming req see
system.mem_ctrl.wrQLenPdf::28                    3772                       # What write queue length does an incoming req see
system.mem_ctrl.wrQLenPdf::29                    3772                       # What write queue length does an incoming req see
system.mem_ctrl.wrQLenPdf::30                    3772                       # What write queue length does an incoming req see
system.mem_ctrl.wrQLenPdf::31                    3772                       # What write queue length does an incoming req see
system.mem_ctrl.wrQLenPdf::32                    3772                       # What write queue length does an incoming req see
system.mem_ctrl.wrQLenPdf::33                       0                       # What write queue length does an incoming req see
system.mem_ctrl.wrQLenPdf::34                       0                       # What write queue length does an incoming req see
system.mem_ctrl.wrQLenPdf::35                       0                       # What write queue length does an incoming req see
system.mem_ctrl.wrQLenPdf::36                       0                       # What write queue length does an incoming req see
system.mem_ctrl.wrQLenPdf::37                       0                       # What write queue length does an incoming req see
system.mem_ctrl.wrQLenPdf::38                       0                       # What write queue length does an incoming req see
system.mem_ctrl.wrQLenPdf::39                       0                       # What write queue length does an incoming req see
system.mem_ctrl.wrQLenPdf::40                       0                       # What write queue length does an incoming req see
system.mem_ctrl.wrQLenPdf::41                       0                       # What write queue length does an incoming req see
system.mem_ctrl.wrQLenPdf::42                       0                       # What write queue length does an incoming req see
system.mem_ctrl.wrQLenPdf::43                       0                       # What write queue length does an incoming req see
system.mem_ctrl.wrQLenPdf::44                       0                       # What write queue length does an incoming req see
system.mem_ctrl.wrQLenPdf::45                       0                       # What write queue length does an incoming req see
system.mem_ctrl.wrQLenPdf::46                       0                       # What write queue length does an incoming req see
system.mem_ctrl.wrQLenPdf::47                       0                       # What write queue length does an incoming req see
system.mem_ctrl.wrQLenPdf::48                       0                       # What write queue length does an incoming req see
system.mem_ctrl.wrQLenPdf::49                       0                       # What write queue length does an incoming req see
system.mem_ctrl.wrQLenPdf::50                       0                       # What write queue length does an incoming req see
system.mem_ctrl.wrQLenPdf::51                       0                       # What write queue length does an incoming req see
system.mem_ctrl.wrQLenPdf::52                       0                       # What write queue length does an incoming req see
system.mem_ctrl.wrQLenPdf::53                       0                       # What write queue length does an incoming req see
system.mem_ctrl.wrQLenPdf::54                       0                       # What write queue length does an incoming req see
system.mem_ctrl.wrQLenPdf::55                       0                       # What write queue length does an incoming req see
system.mem_ctrl.wrQLenPdf::56                       0                       # What write queue length does an incoming req see
system.mem_ctrl.wrQLenPdf::57                       0                       # What write queue length does an incoming req see
system.mem_ctrl.wrQLenPdf::58                       0                       # What write queue length does an incoming req see
system.mem_ctrl.wrQLenPdf::59                       0                       # What write queue length does an incoming req see
system.mem_ctrl.wrQLenPdf::60                       0                       # What write queue length does an incoming req see
system.mem_ctrl.wrQLenPdf::61                       0                       # What write queue length does an incoming req see
system.mem_ctrl.wrQLenPdf::62                       0                       # What write queue length does an incoming req see
system.mem_ctrl.wrQLenPdf::63                       0                       # What write queue length does an incoming req see
system.mem_ctrl.bytesPerActivate::samples       810145                       # Bytes accessed per row activation
system.mem_ctrl.bytesPerActivate::mean     609.713432                       # Bytes accessed per row activation
system.mem_ctrl.bytesPerActivate::gmean    404.833093                       # Bytes accessed per row activation
system.mem_ctrl.bytesPerActivate::stdev    405.442508                       # Bytes accessed per row activation
system.mem_ctrl.bytesPerActivate::0-127        139978     17.28%     17.28% # Bytes accessed per row activation
system.mem_ctrl.bytesPerActivate::128-255       100221     12.37%     29.65% # Bytes accessed per row activation
system.mem_ctrl.bytesPerActivate::256-383        58641      7.24%     36.89% # Bytes accessed per row activation
system.mem_ctrl.bytesPerActivate::384-511        53199      6.57%     43.45% # Bytes accessed per row activation
system.mem_ctrl.bytesPerActivate::512-639        40152      4.96%     48.41% # Bytes accessed per row activation
system.mem_ctrl.bytesPerActivate::640-767        27031      3.34%     51.75% # Bytes accessed per row activation
system.mem_ctrl.bytesPerActivate::768-895        29781      3.68%     55.42% # Bytes accessed per row activation
system.mem_ctrl.bytesPerActivate::896-1023        19757      2.44%     57.86% # Bytes accessed per row activation
system.mem_ctrl.bytesPerActivate::1024-1151       341385     42.14%    100.00% # Bytes accessed per row activation
system.mem_ctrl.bytesPerActivate::total        810145                       # Bytes accessed per row activation
system.mem_ctrl.rdPerTurnAround::samples         3772                       # Reads before turning the bus around for writes
system.mem_ctrl.rdPerTurnAround::mean     2030.100742                       # Reads before turning the bus around for writes
system.mem_ctrl.rdPerTurnAround::stdev    3656.353864                       # Reads before turning the bus around for writes
system.mem_ctrl.rdPerTurnAround::0-2047          2954     78.31%     78.31% # Reads before turning the bus around for writes
system.mem_ctrl.rdPerTurnAround::2048-4095          435     11.53%     89.85% # Reads before turning the bus around for writes
system.mem_ctrl.rdPerTurnAround::4096-6143          162      4.29%     94.14% # Reads before turning the bus around for writes
system.mem_ctrl.rdPerTurnAround::6144-8191           64      1.70%     95.84% # Reads before turning the bus around for writes
system.mem_ctrl.rdPerTurnAround::8192-10239           36      0.95%     96.79% # Reads before turning the bus around for writes
system.mem_ctrl.rdPerTurnAround::10240-12287           26      0.69%     97.48% # Reads before turning the bus around for writes
system.mem_ctrl.rdPerTurnAround::12288-14335           22      0.58%     98.06% # Reads before turning the bus around for writes
system.mem_ctrl.rdPerTurnAround::14336-16383           16      0.42%     98.49% # Reads before turning the bus around for writes
system.mem_ctrl.rdPerTurnAround::16384-18431           13      0.34%     98.83% # Reads before turning the bus around for writes
system.mem_ctrl.rdPerTurnAround::18432-20479            4      0.11%     98.94% # Reads before turning the bus around for writes
system.mem_ctrl.rdPerTurnAround::20480-22527            9      0.24%     99.18% # Reads before turning the bus around for writes
system.mem_ctrl.rdPerTurnAround::22528-24575            3      0.08%     99.26% # Reads before turning the bus around for writes
system.mem_ctrl.rdPerTurnAround::24576-26623            7      0.19%     99.44% # Reads before turning the bus around for writes
system.mem_ctrl.rdPerTurnAround::26624-28671            8      0.21%     99.66% # Reads before turning the bus around for writes
system.mem_ctrl.rdPerTurnAround::28672-30719            3      0.08%     99.73% # Reads before turning the bus around for writes
system.mem_ctrl.rdPerTurnAround::30720-32767            4      0.11%     99.84% # Reads before turning the bus around for writes
system.mem_ctrl.rdPerTurnAround::32768-34815            2      0.05%     99.89% # Reads before turning the bus around for writes
system.mem_ctrl.rdPerTurnAround::38912-40959            1      0.03%     99.92% # Reads before turning the bus around for writes
system.mem_ctrl.rdPerTurnAround::40960-43007            1      0.03%     99.95% # Reads before turning the bus around for writes
system.mem_ctrl.rdPerTurnAround::43008-45055            1      0.03%     99.97% # Reads before turning the bus around for writes
system.mem_ctrl.rdPerTurnAround::47104-49151            1      0.03%    100.00% # Reads before turning the bus around for writes
system.mem_ctrl.rdPerTurnAround::total           3772                       # Reads before turning the bus around for writes
system.mem_ctrl.wrPerTurnAround::samples         3772                       # Writes before turning the bus around for reads
system.mem_ctrl.wrPerTurnAround::mean       16.044008                       # Writes before turning the bus around for reads
system.mem_ctrl.wrPerTurnAround::gmean      16.041439                       # Writes before turning the bus around for reads
system.mem_ctrl.wrPerTurnAround::stdev       0.298806                       # Writes before turning the bus around for reads
system.mem_ctrl.wrPerTurnAround::16              3691     97.85%     97.85% # Writes before turning the bus around for reads
system.mem_ctrl.wrPerTurnAround::18                77      2.04%     99.89% # Writes before turning the bus around for reads
system.mem_ctrl.wrPerTurnAround::19                 4      0.11%    100.00% # Writes before turning the bus around for reads
system.mem_ctrl.wrPerTurnAround::total           3772                       # Writes before turning the bus around for reads
system.mem_ctrl.bytesReadDRAM               490084800                       # Total number of bytes read from DRAM
system.mem_ctrl.bytesReadWrQ                 11180480                       # Total number of bytes read from write queue
system.mem_ctrl.bytesWritten                  3873152                       # Total number of bytes written to DRAM
system.mem_ctrl.bytesReadSys                 60878215                       # Total read bytes from the system interface side
system.mem_ctrl.bytesWrittenSys               5382049                       # Total written bytes from the system interface side
system.mem_ctrl.avgRdBW                       1160.10                       # Average DRAM read bandwidth in MiByte/s
system.mem_ctrl.avgWrBW                          9.17                       # Average achieved write bandwidth in MiByte/s
system.mem_ctrl.avgRdBWSys                     144.11                       # Average system read bandwidth in MiByte/s
system.mem_ctrl.avgWrBWSys                      12.74                       # Average system write bandwidth in MiByte/s
system.mem_ctrl.peakBW                       12800.00                       # Theoretical peak bandwidth in MiByte/s
system.mem_ctrl.busUtil                          9.13                       # Data bus utilization in percentage
system.mem_ctrl.busUtilRead                      9.06                       # Data bus utilization in percentage for reads
system.mem_ctrl.busUtilWrite                     0.07                       # Data bus utilization in percentage for writes
system.mem_ctrl.totGap                   422449062000                       # Total gap between requests
system.mem_ctrl.avgGap                       49024.62                       # Average gap between requests
system.mem_ctrl.masterReadBytes::.cpu.inst     53068648                       # Per-master bytes read from memory
system.mem_ctrl.masterReadBytes::.cpu.data      6732500                       # Per-master bytes read from memory
system.mem_ctrl.masterWriteBytes::.cpu.data       417881                       # Per-master bytes write to memory
system.mem_ctrl.masterReadRate::.cpu.inst 125621389.892334476113                       # Per-master bytes read from memory rate (Bytes/sec)
system.mem_ctrl.masterReadRate::.cpu.data 15936829.735141206533                       # Per-master bytes read from memory rate (Bytes/sec)
system.mem_ctrl.masterWriteRate::.cpu.data 989186.534949950525                       # Per-master bytes write to memory rate (Bytes/sec)
system.mem_ctrl.masterReadAccesses::.cpu.inst      6633581                       # Per-master read serviced memory accesses
system.mem_ctrl.masterReadAccesses::.cpu.data      1198689                       # Per-master read serviced memory accesses
system.mem_ctrl.masterWriteAccesses::.cpu.data       784809                       # Per-master write serviced memory accesses
system.mem_ctrl.masterReadTotalLat::.cpu.inst 144682571000                       # Per-master read total memory access latency
system.mem_ctrl.masterReadTotalLat::.cpu.data  25932219250                       # Per-master read total memory access latency
system.mem_ctrl.masterWriteTotalLat::.cpu.data 10889043622500                       # Per-master write total memory access latency
system.mem_ctrl.masterReadAvgLat::.cpu.inst     21810.63                       # Per-master read average memory access latency
system.mem_ctrl.masterReadAvgLat::.cpu.data     21633.82                       # Per-master read average memory access latency
system.mem_ctrl.masterWriteAvgLat::.cpu.data  13874769.05                       # Per-master write average memory access latency
system.mem_ctrl.pageHitRate                     89.50                       # Row buffer hit rate, read and write combined
system.mem_ctrl.rank1.actEnergy            1868566560                       # Energy for activate commands per rank (pJ)
system.mem_ctrl.rank1.preEnergy             993166680                       # Energy for precharge commands per rank (pJ)
system.mem_ctrl.rank1.readEnergy          18402007680                       # Energy for read commands per rank (pJ)
system.mem_ctrl.rank1.writeEnergy            92842920                       # Energy for write commands per rank (pJ)
system.mem_ctrl.rank1.refreshEnergy      33347293200.000004                       # Energy for refresh commands per rank (pJ)
system.mem_ctrl.rank1.actBackEnergy      142645038210                       # Energy for active background per rank (pJ)
system.mem_ctrl.rank1.preBackEnergy       42098332320                       # Energy for precharge background per rank (pJ)
system.mem_ctrl.rank1.actPowerDownEnergy            0                       # Energy for active power-down per rank (pJ)
system.mem_ctrl.rank1.prePowerDownEnergy            0                       # Energy for precharge power-down per rank (pJ)
system.mem_ctrl.rank1.selfRefreshEnergy             0                       # Energy for self refresh per rank (pJ)
system.mem_ctrl.rank1.totalEnergy        239447247570                       # Total energy per rank (pJ)
system.mem_ctrl.rank1.averagePower         566.807280                       # Core power per rank (mW)
system.mem_ctrl.rank1.totalIdleTime                 0                       # Total Idle time Per DRAM Rank
system.mem_ctrl.rank1.memoryStateTime::IDLE 107576568000                       # Time in different power states
system.mem_ctrl.rank1.memoryStateTime::REF  14106300000                       # Time in different power states
system.mem_ctrl.rank1.memoryStateTime::SREF            0                       # Time in different power states
system.mem_ctrl.rank1.memoryStateTime::PRE_PDN            0                       # Time in different power states
system.mem_ctrl.rank1.memoryStateTime::ACT 300766271000                       # Time in different power states
system.mem_ctrl.rank1.memoryStateTime::ACT_PDN            0                       # Time in different power states
system.mem_ctrl.rank0.actEnergy            3915897300                       # Energy for activate commands per rank (pJ)
system.mem_ctrl.rank0.preEnergy            2081333595                       # Energy for precharge commands per rank (pJ)
system.mem_ctrl.rank0.readEnergy          36273077820                       # Energy for read commands per rank (pJ)
system.mem_ctrl.rank0.writeEnergy           223061040                       # Energy for write commands per rank (pJ)
system.mem_ctrl.rank0.refreshEnergy      33347293200.000004                       # Energy for refresh commands per rank (pJ)
system.mem_ctrl.rank0.actBackEnergy      178973158860                       # Energy for active background per rank (pJ)
system.mem_ctrl.rank0.preBackEnergy       11506230720                       # Energy for precharge background per rank (pJ)
system.mem_ctrl.rank0.actPowerDownEnergy            0                       # Energy for active power-down per rank (pJ)
system.mem_ctrl.rank0.prePowerDownEnergy            0                       # Energy for precharge power-down per rank (pJ)
system.mem_ctrl.rank0.selfRefreshEnergy             0                       # Energy for self refresh per rank (pJ)
system.mem_ctrl.rank0.totalEnergy        266320052535                       # Total energy per rank (pJ)
system.mem_ctrl.rank0.averagePower         630.419210                       # Core power per rank (mW)
system.mem_ctrl.rank0.totalIdleTime                 0                       # Total Idle time Per DRAM Rank
system.mem_ctrl.rank0.memoryStateTime::IDLE  27025596000                       # Time in different power states
system.mem_ctrl.rank0.memoryStateTime::REF  14106300000                       # Time in different power states
system.mem_ctrl.rank0.memoryStateTime::SREF            0                       # Time in different power states
system.mem_ctrl.rank0.memoryStateTime::PRE_PDN            0                       # Time in different power states
system.mem_ctrl.rank0.memoryStateTime::ACT 381317243000                       # Time in different power states
system.mem_ctrl.rank0.memoryStateTime::ACT_PDN            0                       # Time in different power states
system.mem_ctrl.power_state.pwrStateResidencyTicks::UNDEFINED 422449139000                       # Cumulative time (in ticks) in various power states
system.cache.blocked_cycles::no_mshrs               0                       # number of cycles access was blocked
system.cache.blocked_cycles::no_targets             0                       # number of cycles access was blocked
system.cache.blocked::no_mshrs                      0                       # number of cycles access was blocked
system.cache.blocked::no_targets                    0                       # number of cycles access was blocked
system.cache.avg_blocked_cycles::no_mshrs          nan                       # average number of cycles each access was blocked
system.cache.avg_blocked_cycles::no_targets          nan                       # average number of cycles each access was blocked
system.cache.replacements                           0                       # number of replacements
system.cache.power_state.pwrStateResidencyTicks::UNDEFINED 422449139000                       # Cumulative time (in ticks) in various power states
system.cache.tags.tagsinuse                         0                       # Cycle average of tags in use
system.cache.tags.total_refs                        0                       # Total number of references to valid blocks.
system.cache.tags.sampled_refs                      0                       # Sample count of references to valid blocks.
system.cache.tags.avg_refs                        nan                       # Average number of references to valid blocks.
system.cache.tags.warmup_cycle                      0                       # Cycle when the warmup percentage was hit.
system.cache.tags.tag_accesses                      0                       # Number of tag accesses
system.cache.tags.data_accesses                     0                       # Number of data accesses
system.cache.tags.power_state.pwrStateResidencyTicks::UNDEFINED 422449139000                       # Cumulative time (in ticks) in various power states
system.clk_domain.clock                          1000                       # Clock period in ticks
system.clk_domain.voltage_domain.voltage            1                       # Voltage in Volts
system.cachebus.snoops                              0                       # Total snoops (count)
system.cachebus.snoopTraffic                        0                       # Total snoop traffic (bytes)
system.cachebus.snoop_fanout::samples               0                       # Request fanout histogram
system.cachebus.snoop_fanout::mean                nan                       # Request fanout histogram
system.cachebus.snoop_fanout::stdev               nan                       # Request fanout histogram
system.cachebus.snoop_fanout::underflows            0                       # Request fanout histogram
system.cachebus.snoop_fanout::0                     0                       # Request fanout histogram
system.cachebus.snoop_fanout::overflows             0                       # Request fanout histogram
system.cachebus.snoop_fanout::min_value             0                       # Request fanout histogram
system.cachebus.snoop_fanout::max_value             0                       # Request fanout histogram
system.cachebus.snoop_fanout::total                 0                       # Request fanout histogram
system.cachebus.power_state.pwrStateResidencyTicks::UNDEFINED 422449139000                       # Cumulative time (in ticks) in various power states
system.cpu.dtb.walker.power_state.pwrStateResidencyTicks::UNDEFINED 422449139000                       # Cumulative time (in ticks) in various power states
system.cpu.interrupts.clk_domain.clock          16000                       # Clock period in ticks
system.cpu.itb.walker.power_state.pwrStateResidencyTicks::UNDEFINED 422449139000                       # Cumulative time (in ticks) in various power states
system.cpu.power_state.numTransitions               1                       # Number of power state transitions
system.cpu.power_state.pwrStateResidencyTicks::ON 422449139000                       # Cumulative time (in ticks) in various power states

---------- End Simulation Statistics   ----------
