
---------- Begin Simulation Statistics ----------
final_tick                                 4508707000                       # Number of ticks from beginning of simulation (restored from checkpoints and never reset)
host_inst_rate                                 269725                       # Simulator instruction rate (inst/s)
host_mem_usage                                1438828                       # Number of bytes of host memory used
host_op_rate                                   510911                       # Simulator op (including micro ops) rate (op/s)
host_seconds                                     3.71                       # Real time elapsed on the host
host_tick_rate                             1215920528                       # Simulator tick rate (ticks/s)
sim_freq                                 1000000000000                       # Frequency of simulated ticks
sim_insts                                     1000081                       # Number of instructions simulated
sim_ops                                       1894466                       # Number of ops (including micro ops) simulated
sim_seconds                                  0.004509                       # Number of seconds simulated
sim_ticks                                  4508707000                       # Number of ticks simulated
system.cpu.Branches                            220026                       # Number of branches fetched
system.cpu.committedInsts                     1000081                       # Number of instructions committed
system.cpu.committedOps                       1894466                       # Number of ops (including micro ops) committed
system.cpu.dtb.rdAccesses                      208625                       # TLB accesses on read requests
system.cpu.dtb.rdMisses                            86                       # TLB misses on read requests
system.cpu.dtb.wrAccesses                      173595                       # TLB accesses on write requests
system.cpu.dtb.wrMisses                           111                       # TLB misses on write requests
system.cpu.idle_fraction                            0                       # Percentage of idle cycles
system.cpu.itb.rdAccesses                           0                       # TLB accesses on read requests
system.cpu.itb.rdMisses                             0                       # TLB misses on read requests
system.cpu.itb.wrAccesses                     1300983                       # TLB accesses on write requests
system.cpu.itb.wrMisses                           413                       # TLB misses on write requests
system.cpu.not_idle_fraction                        1                       # Percentage of non-idle cycles
system.cpu.numCycles                          4508696                       # number of cpu cycles simulated
system.cpu.numWorkItemsCompleted                    0                       # number of work items this cpu completed
system.cpu.numWorkItemsStarted                      0                       # number of work items this cpu started
system.cpu.num_busy_cycles                    4508696                       # Number of busy cycles
system.cpu.num_cc_register_reads              1111478                       # number of times the CC registers were read
system.cpu.num_cc_register_writes              581967                       # number of times the CC registers were written
system.cpu.num_conditional_control_insts       163983                       # number of instructions that are conditional controls
system.cpu.num_fp_alu_accesses                  18178                       # Number of float alu accesses
system.cpu.num_fp_insts                         18178                       # number of float instructions
system.cpu.num_fp_register_reads                24064                       # number of times the floating registers were read
system.cpu.num_fp_register_writes               11277                       # number of times the floating registers were written
system.cpu.num_func_calls                       40674                       # number of times a function call or return occured
system.cpu.num_idle_cycles                          0                       # Number of idle cycles
system.cpu.num_int_alu_accesses               1881034                       # Number of integer alu accesses
system.cpu.num_int_insts                      1881034                       # number of integer instructions
system.cpu.num_int_register_reads             3697211                       # number of times the integer registers were read
system.cpu.num_int_register_writes            1492854                       # number of times the integer registers were written
system.cpu.num_load_insts                      208570                       # Number of load instructions
system.cpu.num_mem_refs                        382158                       # number of memory refs
system.cpu.num_store_insts                     173588                       # Number of store instructions
system.cpu.num_vec_alu_accesses                     0                       # Number of vector alu accesses
system.cpu.num_vec_insts                            0                       # number of vector instructions
system.cpu.num_vec_register_reads                   0                       # number of times the vector registers were read
system.cpu.num_vec_register_writes                  0                       # number of times the vector registers were written
system.cpu.op_class::No_OpClass                  3672      0.19%      0.19% # Class of executed instruction
system.cpu.op_class::IntAlu                   1494554     78.89%     79.08% # Class of executed instruction
system.cpu.op_class::IntMult                      738      0.04%     79.12% # Class of executed instruction
system.cpu.op_class::IntDiv                      3547      0.19%     79.31% # Class of executed instruction
system.cpu.op_class::FloatAdd                      53      0.00%     79.31% # Class of executed instruction
system.cpu.op_class::FloatCmp                       0      0.00%     79.31% # Class of executed instruction
system.cpu.op_class::FloatCvt                       0      0.00%     79.31% # Class of executed instruction
system.cpu.op_class::FloatMult                      0      0.00%     79.31% # Class of executed instruction
system.cpu.op_class::FloatMultAcc                   0      0.00%     79.31% # Class of executed instruction
system.cpu.op_class::FloatDiv                       0      0.00%     79.31% # Class of executed instruction
system.cpu.op_class::FloatMisc                      0      0.00%     79.31% # Class of executed instruction
system.cpu.op_class::FloatSqrt                      0      0.00%     79.31% # Class of executed instruction
system.cpu.op_class::SimdAdd                       24      0.00%     79.31% # Class of executed instruction
system.cpu.op_class::SimdAddAcc                     0      0.00%     79.31% # Class of executed instruction
system.cpu.op_class::SimdAlu                     4217      0.22%     79.54% # Class of executed instruction
system.cpu.op_class::SimdCmp                       30      0.00%     79.54% # Class of executed instruction
system.cpu.op_class::SimdCvt                     2432      0.13%     79.67% # Class of executed instruction
system.cpu.op_class::SimdMisc                    2860      0.15%     79.82% # Class of executed instruction
system.cpu.op_class::SimdMult                       0      0.00%     79.82% # Class of executed instruction
system.cpu.op_class::SimdMultAcc                    0      0.00%     79.82% # Class of executed instruction
system.cpu.op_class::SimdShift                      9      0.00%     79.82% # Class of executed instruction
system.cpu.op_class::SimdShiftAcc                   0      0.00%     79.82% # Class of executed instruction
system.cpu.op_class::SimdDiv                        0      0.00%     79.82% # Class of executed instruction
system.cpu.op_class::SimdSqrt                       0      0.00%     79.82% # Class of executed instruction
system.cpu.op_class::SimdFloatAdd                   5      0.00%     79.82% # Class of executed instruction
system.cpu.op_class::SimdFloatAlu                   0      0.00%     79.82% # Class of executed instruction
system.cpu.op_class::SimdFloatCmp                   0      0.00%     79.82% # Class of executed instruction
system.cpu.op_class::SimdFloatCvt                 160      0.01%     79.83% # Class of executed instruction
system.cpu.op_class::SimdFloatDiv                   1      0.00%     79.83% # Class of executed instruction
system.cpu.op_class::SimdFloatMisc                  0      0.00%     79.83% # Class of executed instruction
system.cpu.op_class::SimdFloatMult                 53      0.00%     79.83% # Class of executed instruction
system.cpu.op_class::SimdFloatMultAcc               0      0.00%     79.83% # Class of executed instruction
system.cpu.op_class::SimdFloatSqrt                  1      0.00%     79.83% # Class of executed instruction
system.cpu.op_class::SimdReduceAdd                  0      0.00%     79.83% # Class of executed instruction
system.cpu.op_class::SimdReduceAlu                  0      0.00%     79.83% # Class of executed instruction
system.cpu.op_class::SimdReduceCmp                  0      0.00%     79.83% # Class of executed instruction
system.cpu.op_class::SimdFloatReduceAdd             0      0.00%     79.83% # Class of executed instruction
system.cpu.op_class::SimdFloatReduceCmp             0      0.00%     79.83% # Class of executed instruction
system.cpu.op_class::SimdAes                        0      0.00%     79.83% # Class of executed instruction
system.cpu.op_class::SimdAesMix                     0      0.00%     79.83% # Class of executed instruction
system.cpu.op_class::SimdSha1Hash                   0      0.00%     79.83% # Class of executed instruction
system.cpu.op_class::SimdSha1Hash2                  0      0.00%     79.83% # Class of executed instruction
system.cpu.op_class::SimdSha256Hash                 0      0.00%     79.83% # Class of executed instruction
system.cpu.op_class::SimdSha256Hash2                0      0.00%     79.83% # Class of executed instruction
system.cpu.op_class::SimdShaSigma2                  0      0.00%     79.83% # Class of executed instruction
system.cpu.op_class::SimdShaSigma3                  0      0.00%     79.83% # Class of executed instruction
system.cpu.op_class::SimdPredAlu                    0      0.00%     79.83% # Class of executed instruction
system.cpu.op_class::MemRead                   204679     10.80%     90.63% # Class of executed instruction
system.cpu.op_class::MemWrite                  169205      8.93%     99.56% # Class of executed instruction
system.cpu.op_class::FloatMemRead                3891      0.21%     99.77% # Class of executed instruction
system.cpu.op_class::FloatMemWrite               4383      0.23%    100.00% # Class of executed instruction
system.cpu.op_class::IprAccess                      0      0.00%    100.00% # Class of executed instruction
system.cpu.op_class::InstPrefetch                   0      0.00%    100.00% # Class of executed instruction
system.cpu.op_class::total                    1894514                       # Class of executed instruction
system.cpu.workload.numSyscalls                    16                       # Number of system calls
system.dynamic_cache.flushTicks                     0                       # Ticks taken to flush
system.dynamic_cache.numFlushes                     0                       # Number of Flushes Taken
system.cache_small.blocked_cycles::no_mshrs            0                       # number of cycles access was blocked
system.cache_small.blocked_cycles::no_targets            0                       # number of cycles access was blocked
system.cache_small.blocked::no_mshrs                0                       # number of cycles access was blocked
system.cache_small.blocked::no_targets              0                       # number of cycles access was blocked
system.cache_small.avg_blocked_cycles::no_mshrs          nan                       # average number of cycles each access was blocked
system.cache_small.avg_blocked_cycles::no_targets          nan                       # average number of cycles each access was blocked
system.cache_small.replacements                     0                       # number of replacements
system.cache_small.power_state.pwrStateResidencyTicks::UNDEFINED   4508707000                       # Cumulative time (in ticks) in various power states
system.cache_small.tags.tagsinuse                   0                       # Cycle average of tags in use
system.cache_small.tags.total_refs                  0                       # Total number of references to valid blocks.
system.cache_small.tags.sampled_refs                0                       # Sample count of references to valid blocks.
system.cache_small.tags.avg_refs                  nan                       # Average number of references to valid blocks.
system.cache_small.tags.warmup_cycle                0                       # Cycle when the warmup percentage was hit.
system.cache_small.tags.tag_accesses                0                       # Number of tag accesses
system.cache_small.tags.data_accesses               0                       # Number of data accesses
system.cache_small.tags.power_state.pwrStateResidencyTicks::UNDEFINED   4508707000                       # Cumulative time (in ticks) in various power states
system.icache.demand_hits::.cpu.inst          1280523                       # number of demand (read+write) hits
system.icache.demand_hits::total              1280523                       # number of demand (read+write) hits
system.icache.overall_hits::.cpu.inst         1280523                       # number of overall hits
system.icache.overall_hits::total             1280523                       # number of overall hits
system.icache.demand_misses::.cpu.inst          20460                       # number of demand (read+write) misses
system.icache.demand_misses::total              20460                       # number of demand (read+write) misses
system.icache.overall_misses::.cpu.inst         20460                       # number of overall misses
system.icache.overall_misses::total             20460                       # number of overall misses
system.icache.demand_miss_latency::.cpu.inst    687767000                       # number of demand (read+write) miss cycles
system.icache.demand_miss_latency::total    687767000                       # number of demand (read+write) miss cycles
system.icache.overall_miss_latency::.cpu.inst    687767000                       # number of overall miss cycles
system.icache.overall_miss_latency::total    687767000                       # number of overall miss cycles
system.icache.demand_accesses::.cpu.inst      1300983                       # number of demand (read+write) accesses
system.icache.demand_accesses::total          1300983                       # number of demand (read+write) accesses
system.icache.overall_accesses::.cpu.inst      1300983                       # number of overall (read+write) accesses
system.icache.overall_accesses::total         1300983                       # number of overall (read+write) accesses
system.icache.demand_miss_rate::.cpu.inst     0.015727                       # miss rate for demand accesses
system.icache.demand_miss_rate::total        0.015727                       # miss rate for demand accesses
system.icache.overall_miss_rate::.cpu.inst     0.015727                       # miss rate for overall accesses
system.icache.overall_miss_rate::total       0.015727                       # miss rate for overall accesses
system.icache.demand_avg_miss_latency::.cpu.inst 33615.200391                       # average overall miss latency
system.icache.demand_avg_miss_latency::total 33615.200391                       # average overall miss latency
system.icache.overall_avg_miss_latency::.cpu.inst 33615.200391                       # average overall miss latency
system.icache.overall_avg_miss_latency::total 33615.200391                       # average overall miss latency
system.icache.blocked_cycles::no_mshrs              0                       # number of cycles access was blocked
system.icache.blocked_cycles::no_targets            0                       # number of cycles access was blocked
system.icache.blocked::no_mshrs                     0                       # number of cycles access was blocked
system.icache.blocked::no_targets                   0                       # number of cycles access was blocked
system.icache.avg_blocked_cycles::no_mshrs          nan                       # average number of cycles each access was blocked
system.icache.avg_blocked_cycles::no_targets          nan                       # average number of cycles each access was blocked
system.icache.demand_mshr_misses::.cpu.inst        20460                       # number of demand (read+write) MSHR misses
system.icache.demand_mshr_misses::total         20460                       # number of demand (read+write) MSHR misses
system.icache.overall_mshr_misses::.cpu.inst        20460                       # number of overall MSHR misses
system.icache.overall_mshr_misses::total        20460                       # number of overall MSHR misses
system.icache.demand_mshr_miss_latency::.cpu.inst    646847000                       # number of demand (read+write) MSHR miss cycles
system.icache.demand_mshr_miss_latency::total    646847000                       # number of demand (read+write) MSHR miss cycles
system.icache.overall_mshr_miss_latency::.cpu.inst    646847000                       # number of overall MSHR miss cycles
system.icache.overall_mshr_miss_latency::total    646847000                       # number of overall MSHR miss cycles
system.icache.demand_mshr_miss_rate::.cpu.inst     0.015727                       # mshr miss rate for demand accesses
system.icache.demand_mshr_miss_rate::total     0.015727                       # mshr miss rate for demand accesses
system.icache.overall_mshr_miss_rate::.cpu.inst     0.015727                       # mshr miss rate for overall accesses
system.icache.overall_mshr_miss_rate::total     0.015727                       # mshr miss rate for overall accesses
system.icache.demand_avg_mshr_miss_latency::.cpu.inst 31615.200391                       # average overall mshr miss latency
system.icache.demand_avg_mshr_miss_latency::total 31615.200391                       # average overall mshr miss latency
system.icache.overall_avg_mshr_miss_latency::.cpu.inst 31615.200391                       # average overall mshr miss latency
system.icache.overall_avg_mshr_miss_latency::total 31615.200391                       # average overall mshr miss latency
system.icache.replacements                      20204                       # number of replacements
system.icache.ReadReq_hits::.cpu.inst         1280523                       # number of ReadReq hits
system.icache.ReadReq_hits::total             1280523                       # number of ReadReq hits
system.icache.ReadReq_misses::.cpu.inst         20460                       # number of ReadReq misses
system.icache.ReadReq_misses::total             20460                       # number of ReadReq misses
system.icache.ReadReq_miss_latency::.cpu.inst    687767000                       # number of ReadReq miss cycles
system.icache.ReadReq_miss_latency::total    687767000                       # number of ReadReq miss cycles
system.icache.ReadReq_accesses::.cpu.inst      1300983                       # number of ReadReq accesses(hits+misses)
system.icache.ReadReq_accesses::total         1300983                       # number of ReadReq accesses(hits+misses)
system.icache.ReadReq_miss_rate::.cpu.inst     0.015727                       # miss rate for ReadReq accesses
system.icache.ReadReq_miss_rate::total       0.015727                       # miss rate for ReadReq accesses
system.icache.ReadReq_avg_miss_latency::.cpu.inst 33615.200391                       # average ReadReq miss latency
system.icache.ReadReq_avg_miss_latency::total 33615.200391                       # average ReadReq miss latency
system.icache.ReadReq_mshr_misses::.cpu.inst        20460                       # number of ReadReq MSHR misses
system.icache.ReadReq_mshr_misses::total        20460                       # number of ReadReq MSHR misses
system.icache.ReadReq_mshr_miss_latency::.cpu.inst    646847000                       # number of ReadReq MSHR miss cycles
system.icache.ReadReq_mshr_miss_latency::total    646847000                       # number of ReadReq MSHR miss cycles
system.icache.ReadReq_mshr_miss_rate::.cpu.inst     0.015727                       # mshr miss rate for ReadReq accesses
system.icache.ReadReq_mshr_miss_rate::total     0.015727                       # mshr miss rate for ReadReq accesses
system.icache.ReadReq_avg_mshr_miss_latency::.cpu.inst 31615.200391                       # average ReadReq mshr miss latency
system.icache.ReadReq_avg_mshr_miss_latency::total 31615.200391                       # average ReadReq mshr miss latency
system.icache.power_state.pwrStateResidencyTicks::UNDEFINED   4508707000                       # Cumulative time (in ticks) in various power states
system.icache.tags.tagsinuse               250.811268                       # Cycle average of tags in use
system.icache.tags.total_refs                 1201500                       # Total number of references to valid blocks.
system.icache.tags.sampled_refs                 20204                       # Sample count of references to valid blocks.
system.icache.tags.avg_refs                 59.468422                       # Average number of references to valid blocks.
system.icache.tags.warmup_cycle                 80000                       # Cycle when the warmup percentage was hit.
system.icache.tags.occ_blocks::.cpu.inst   250.811268                       # Average occupied blocks per requestor
system.icache.tags.occ_percent::.cpu.inst     0.979732                       # Average percentage of cache occupancy
system.icache.tags.occ_percent::total        0.979732                       # Average percentage of cache occupancy
system.icache.tags.occ_task_id_blocks::1024          256                       # Occupied blocks per task id
system.icache.tags.age_task_id_blocks_1024::2          254                       # Occupied blocks per task id
system.icache.tags.age_task_id_blocks_1024::3            2                       # Occupied blocks per task id
system.icache.tags.occ_task_id_percent::1024            1                       # Percentage of cache occupancy per task id
system.icache.tags.tag_accesses               1321443                       # Number of tag accesses
system.icache.tags.data_accesses              1321443                       # Number of data accesses
system.icache.tags.power_state.pwrStateResidencyTicks::UNDEFINED   4508707000                       # Cumulative time (in ticks) in various power states
system.membus.trans_dist::ReadReq               11918                       # Transaction distribution
system.membus.trans_dist::ReadResp              11918                       # Transaction distribution
system.membus.trans_dist::WritebackDirty         5000                       # Transaction distribution
system.membus.pkt_count_system.dynamic_cache.mem_side::system.mem_ctrl.port        28836                       # Packet count per connected master and slave (bytes)
system.membus.pkt_count_system.dynamic_cache.mem_side::total        28836                       # Packet count per connected master and slave (bytes)
system.membus.pkt_count::total                  28836                       # Packet count per connected master and slave (bytes)
system.membus.pkt_size_system.dynamic_cache.mem_side::system.mem_ctrl.port      1082752                       # Cumulative packet size per connected master and slave (bytes)
system.membus.pkt_size_system.dynamic_cache.mem_side::total      1082752                       # Cumulative packet size per connected master and slave (bytes)
system.membus.pkt_size::total                 1082752                       # Cumulative packet size per connected master and slave (bytes)
system.membus.reqLayer2.occupancy            36918000                       # Layer occupancy (ticks)
system.membus.reqLayer2.utilization               0.8                       # Layer utilization (%)
system.membus.respLayer0.occupancy           63799750                       # Layer occupancy (ticks)
system.membus.respLayer0.utilization              1.4                       # Layer utilization (%)
system.membus.power_state.pwrStateResidencyTicks::UNDEFINED   4508707000                       # Cumulative time (in ticks) in various power states
system.mem_ctrl.bytes_read::.cpu.inst          395840                       # Number of bytes read from this memory
system.mem_ctrl.bytes_read::.cpu.data          366912                       # Number of bytes read from this memory
system.mem_ctrl.bytes_read::total              762752                       # Number of bytes read from this memory
system.mem_ctrl.bytes_inst_read::.cpu.inst       395840                       # Number of instructions bytes read from this memory
system.mem_ctrl.bytes_inst_read::total         395840                       # Number of instructions bytes read from this memory
system.mem_ctrl.bytes_written::.writebacks       320000                       # Number of bytes written to this memory
system.mem_ctrl.bytes_written::total           320000                       # Number of bytes written to this memory
system.mem_ctrl.num_reads::.cpu.inst             6185                       # Number of read requests responded to by this memory
system.mem_ctrl.num_reads::.cpu.data             5733                       # Number of read requests responded to by this memory
system.mem_ctrl.num_reads::total                11918                       # Number of read requests responded to by this memory
system.mem_ctrl.num_writes::.writebacks          5000                       # Number of write requests responded to by this memory
system.mem_ctrl.num_writes::total                5000                       # Number of write requests responded to by this memory
system.mem_ctrl.bw_read::.cpu.inst           87794572                       # Total read bandwidth from this memory (bytes/s)
system.mem_ctrl.bw_read::.cpu.data           81378542                       # Total read bandwidth from this memory (bytes/s)
system.mem_ctrl.bw_read::total              169173113                       # Total read bandwidth from this memory (bytes/s)
system.mem_ctrl.bw_inst_read::.cpu.inst      87794572                       # Instruction read bandwidth from this memory (bytes/s)
system.mem_ctrl.bw_inst_read::total          87794572                       # Instruction read bandwidth from this memory (bytes/s)
system.mem_ctrl.bw_write::.writebacks        70973785                       # Write bandwidth from this memory (bytes/s)
system.mem_ctrl.bw_write::total              70973785                       # Write bandwidth from this memory (bytes/s)
system.mem_ctrl.bw_total::.writebacks        70973785                       # Total bandwidth to/from this memory (bytes/s)
system.mem_ctrl.bw_total::.cpu.inst          87794572                       # Total bandwidth to/from this memory (bytes/s)
system.mem_ctrl.bw_total::.cpu.data          81378542                       # Total bandwidth to/from this memory (bytes/s)
system.mem_ctrl.bw_total::total             240146898                       # Total bandwidth to/from this memory (bytes/s)
system.mem_ctrl.avgPriority_.writebacks::samples      2875.00                       # Average QoS priority value for accepted requests
system.mem_ctrl.avgPriority_.cpu.inst::samples      6185.00                       # Average QoS priority value for accepted requests
system.mem_ctrl.avgPriority_.cpu.data::samples      5605.00                       # Average QoS priority value for accepted requests
system.mem_ctrl.priorityMinLatency       0.000000018750                       # per QoS priority minimum request to response latency (s)
system.mem_ctrl.priorityMaxLatency       0.001699169750                       # per QoS priority maximum request to response latency (s)
system.mem_ctrl.numReadWriteTurnArounds           166                       # Number of turnarounds from READ to WRITE
system.mem_ctrl.numWriteReadTurnArounds           166                       # Number of turnarounds from WRITE to READ
system.mem_ctrl.numStayReadState                29625                       # Number of times bus staying in READ state
system.mem_ctrl.numStayWriteState                2688                       # Number of times bus staying in WRITE state
system.mem_ctrl.readReqs                        11918                       # Number of read requests accepted
system.mem_ctrl.writeReqs                        5000                       # Number of write requests accepted
system.mem_ctrl.readBursts                      11918                       # Number of DRAM read bursts, including those serviced by the write queue
system.mem_ctrl.writeBursts                      5000                       # Number of DRAM write bursts, including those merged in the write queue
system.mem_ctrl.servicedByWrQ                     128                       # Number of DRAM read bursts serviced by the write queue
system.mem_ctrl.mergedWrBursts                   2125                       # Number of DRAM write bursts merged with an existing one
system.mem_ctrl.neitherReadNorWriteReqs             0                       # Number of requests that are neither read nor write
system.mem_ctrl.perBankRdBursts::0                514                       # Per bank write bursts
system.mem_ctrl.perBankRdBursts::1                521                       # Per bank write bursts
system.mem_ctrl.perBankRdBursts::2                414                       # Per bank write bursts
system.mem_ctrl.perBankRdBursts::3                681                       # Per bank write bursts
system.mem_ctrl.perBankRdBursts::4               1180                       # Per bank write bursts
system.mem_ctrl.perBankRdBursts::5                686                       # Per bank write bursts
system.mem_ctrl.perBankRdBursts::6                764                       # Per bank write bursts
system.mem_ctrl.perBankRdBursts::7                631                       # Per bank write bursts
system.mem_ctrl.perBankRdBursts::8               1381                       # Per bank write bursts
system.mem_ctrl.perBankRdBursts::9               2495                       # Per bank write bursts
system.mem_ctrl.perBankRdBursts::10               563                       # Per bank write bursts
system.mem_ctrl.perBankRdBursts::11               364                       # Per bank write bursts
system.mem_ctrl.perBankRdBursts::12               341                       # Per bank write bursts
system.mem_ctrl.perBankRdBursts::13               608                       # Per bank write bursts
system.mem_ctrl.perBankRdBursts::14               347                       # Per bank write bursts
system.mem_ctrl.perBankRdBursts::15               300                       # Per bank write bursts
system.mem_ctrl.perBankWrBursts::0                138                       # Per bank write bursts
system.mem_ctrl.perBankWrBursts::1                105                       # Per bank write bursts
system.mem_ctrl.perBankWrBursts::2                143                       # Per bank write bursts
system.mem_ctrl.perBankWrBursts::3                189                       # Per bank write bursts
system.mem_ctrl.perBankWrBursts::4                215                       # Per bank write bursts
system.mem_ctrl.perBankWrBursts::5                361                       # Per bank write bursts
system.mem_ctrl.perBankWrBursts::6                287                       # Per bank write bursts
system.mem_ctrl.perBankWrBursts::7                241                       # Per bank write bursts
system.mem_ctrl.perBankWrBursts::8                159                       # Per bank write bursts
system.mem_ctrl.perBankWrBursts::9                131                       # Per bank write bursts
system.mem_ctrl.perBankWrBursts::10                39                       # Per bank write bursts
system.mem_ctrl.perBankWrBursts::11               223                       # Per bank write bursts
system.mem_ctrl.perBankWrBursts::12                62                       # Per bank write bursts
system.mem_ctrl.perBankWrBursts::13               251                       # Per bank write bursts
system.mem_ctrl.perBankWrBursts::14               187                       # Per bank write bursts
system.mem_ctrl.perBankWrBursts::15               122                       # Per bank write bursts
system.mem_ctrl.avgRdQLen                        1.00                       # Average read queue length when enqueuing
system.mem_ctrl.avgWrQLen                       24.24                       # Average write queue length when enqueuing
system.mem_ctrl.totQLat                     127188750                       # Total ticks spent queuing
system.mem_ctrl.totBusLat                    58950000                       # Total ticks spent in databus transfers
system.mem_ctrl.totMemAccLat                348251250                       # Total ticks spent from burst creation until serviced by the DRAM
system.mem_ctrl.avgQLat                      10787.85                       # Average queueing delay per DRAM burst
system.mem_ctrl.avgBusLat                     5000.00                       # Average bus latency per DRAM burst
system.mem_ctrl.avgMemAccLat                 29537.85                       # Average memory access latency per DRAM burst
system.mem_ctrl.numRdRetry                          0                       # Number of times read queue was full causing retry
system.mem_ctrl.numWrRetry                          0                       # Number of times write queue was full causing retry
system.mem_ctrl.readRowHits                      7714                       # Number of row buffer hits during reads
system.mem_ctrl.writeRowHits                     2361                       # Number of row buffer hits during writes
system.mem_ctrl.readRowHitRate                  65.43                       # Row buffer hit rate for reads
system.mem_ctrl.writeRowHitRate                 82.12                       # Row buffer hit rate for writes
system.mem_ctrl.readPktSize::0                      0                       # Read request sizes (log2)
system.mem_ctrl.readPktSize::1                      0                       # Read request sizes (log2)
system.mem_ctrl.readPktSize::2                      0                       # Read request sizes (log2)
system.mem_ctrl.readPktSize::3                      0                       # Read request sizes (log2)
system.mem_ctrl.readPktSize::4                      0                       # Read request sizes (log2)
system.mem_ctrl.readPktSize::5                      0                       # Read request sizes (log2)
system.mem_ctrl.readPktSize::6                  11918                       # Read request sizes (log2)
system.mem_ctrl.writePktSize::0                     0                       # Write request sizes (log2)
system.mem_ctrl.writePktSize::1                     0                       # Write request sizes (log2)
system.mem_ctrl.writePktSize::2                     0                       # Write request sizes (log2)
system.mem_ctrl.writePktSize::3                     0                       # Write request sizes (log2)
system.mem_ctrl.writePktSize::4                     0                       # Write request sizes (log2)
system.mem_ctrl.writePktSize::5                     0                       # Write request sizes (log2)
system.mem_ctrl.writePktSize::6                  5000                       # Write request sizes (log2)
system.mem_ctrl.rdQLenPdf::0                    11790                       # What read queue length does an incoming req see
system.mem_ctrl.rdQLenPdf::1                        0                       # What read queue length does an incoming req see
system.mem_ctrl.rdQLenPdf::2                        0                       # What read queue length does an incoming req see
system.mem_ctrl.rdQLenPdf::3                        0                       # What read queue length does an incoming req see
system.mem_ctrl.rdQLenPdf::4                        0                       # What read queue length does an incoming req see
system.mem_ctrl.rdQLenPdf::5                        0                       # What read queue length does an incoming req see
system.mem_ctrl.rdQLenPdf::6                        0                       # What read queue length does an incoming req see
system.mem_ctrl.rdQLenPdf::7                        0                       # What read queue length does an incoming req see
system.mem_ctrl.rdQLenPdf::8                        0                       # What read queue length does an incoming req see
system.mem_ctrl.rdQLenPdf::9                        0                       # What read queue length does an incoming req see
system.mem_ctrl.rdQLenPdf::10                       0                       # What read queue length does an incoming req see
system.mem_ctrl.rdQLenPdf::11                       0                       # What read queue length does an incoming req see
system.mem_ctrl.rdQLenPdf::12                       0                       # What read queue length does an incoming req see
system.mem_ctrl.rdQLenPdf::13                       0                       # What read queue length does an incoming req see
system.mem_ctrl.rdQLenPdf::14                       0                       # What read queue length does an incoming req see
system.mem_ctrl.rdQLenPdf::15                       0                       # What read queue length does an incoming req see
system.mem_ctrl.rdQLenPdf::16                       0                       # What read queue length does an incoming req see
system.mem_ctrl.rdQLenPdf::17                       0                       # What read queue length does an incoming req see
system.mem_ctrl.rdQLenPdf::18                       0                       # What read queue length does an incoming req see
system.mem_ctrl.rdQLenPdf::19                       0                       # What read queue length does an incoming req see
system.mem_ctrl.rdQLenPdf::20                       0                       # What read queue length does an incoming req see
system.mem_ctrl.rdQLenPdf::21                       0                       # What read queue length does an incoming req see
system.mem_ctrl.rdQLenPdf::22                       0                       # What read queue length does an incoming req see
system.mem_ctrl.rdQLenPdf::23                       0                       # What read queue length does an incoming req see
system.mem_ctrl.rdQLenPdf::24                       0                       # What read queue length does an incoming req see
system.mem_ctrl.rdQLenPdf::25                       0                       # What read queue length does an incoming req see
system.mem_ctrl.rdQLenPdf::26                       0                       # What read queue length does an incoming req see
system.mem_ctrl.rdQLenPdf::27                       0                       # What read queue length does an incoming req see
system.mem_ctrl.rdQLenPdf::28                       0                       # What read queue length does an incoming req see
system.mem_ctrl.rdQLenPdf::29                       0                       # What read queue length does an incoming req see
system.mem_ctrl.rdQLenPdf::30                       0                       # What read queue length does an incoming req see
system.mem_ctrl.rdQLenPdf::31                       0                       # What read queue length does an incoming req see
system.mem_ctrl.wrQLenPdf::0                        1                       # What write queue length does an incoming req see
system.mem_ctrl.wrQLenPdf::1                        1                       # What write queue length does an incoming req see
system.mem_ctrl.wrQLenPdf::2                        1                       # What write queue length does an incoming req see
system.mem_ctrl.wrQLenPdf::3                        1                       # What write queue length does an incoming req see
system.mem_ctrl.wrQLenPdf::4                        1                       # What write queue length does an incoming req see
system.mem_ctrl.wrQLenPdf::5                        1                       # What write queue length does an incoming req see
system.mem_ctrl.wrQLenPdf::6                        1                       # What write queue length does an incoming req see
system.mem_ctrl.wrQLenPdf::7                        1                       # What write queue length does an incoming req see
system.mem_ctrl.wrQLenPdf::8                        1                       # What write queue length does an incoming req see
system.mem_ctrl.wrQLenPdf::9                        1                       # What write queue length does an incoming req see
system.mem_ctrl.wrQLenPdf::10                       1                       # What write queue length does an incoming req see
system.mem_ctrl.wrQLenPdf::11                       1                       # What write queue length does an incoming req see
system.mem_ctrl.wrQLenPdf::12                       1                       # What write queue length does an incoming req see
system.mem_ctrl.wrQLenPdf::13                       1                       # What write queue length does an incoming req see
system.mem_ctrl.wrQLenPdf::14                       1                       # What write queue length does an incoming req see
system.mem_ctrl.wrQLenPdf::15                      90                       # What write queue length does an incoming req see
system.mem_ctrl.wrQLenPdf::16                      99                       # What write queue length does an incoming req see
system.mem_ctrl.wrQLenPdf::17                     166                       # What write queue length does an incoming req see
system.mem_ctrl.wrQLenPdf::18                     168                       # What write queue length does an incoming req see
system.mem_ctrl.wrQLenPdf::19                     167                       # What write queue length does an incoming req see
system.mem_ctrl.wrQLenPdf::20                     169                       # What write queue length does an incoming req see
system.mem_ctrl.wrQLenPdf::21                     167                       # What write queue length does an incoming req see
system.mem_ctrl.wrQLenPdf::22                     166                       # What write queue length does an incoming req see
system.mem_ctrl.wrQLenPdf::23                     167                       # What write queue length does an incoming req see
system.mem_ctrl.wrQLenPdf::24                     170                       # What write queue length does an incoming req see
system.mem_ctrl.wrQLenPdf::25                     166                       # What write queue length does an incoming req see
system.mem_ctrl.wrQLenPdf::26                     166                       # What write queue length does an incoming req see
system.mem_ctrl.wrQLenPdf::27                     169                       # What write queue length does an incoming req see
system.mem_ctrl.wrQLenPdf::28                     166                       # What write queue length does an incoming req see
system.mem_ctrl.wrQLenPdf::29                     166                       # What write queue length does an incoming req see
system.mem_ctrl.wrQLenPdf::30                     166                       # What write queue length does an incoming req see
system.mem_ctrl.wrQLenPdf::31                     166                       # What write queue length does an incoming req see
system.mem_ctrl.wrQLenPdf::32                     166                       # What write queue length does an incoming req see
system.mem_ctrl.wrQLenPdf::33                       0                       # What write queue length does an incoming req see
system.mem_ctrl.wrQLenPdf::34                       0                       # What write queue length does an incoming req see
system.mem_ctrl.wrQLenPdf::35                       0                       # What write queue length does an incoming req see
system.mem_ctrl.wrQLenPdf::36                       0                       # What write queue length does an incoming req see
system.mem_ctrl.wrQLenPdf::37                       0                       # What write queue length does an incoming req see
system.mem_ctrl.wrQLenPdf::38                       0                       # What write queue length does an incoming req see
system.mem_ctrl.wrQLenPdf::39                       0                       # What write queue length does an incoming req see
system.mem_ctrl.wrQLenPdf::40                       0                       # What write queue length does an incoming req see
system.mem_ctrl.wrQLenPdf::41                       0                       # What write queue length does an incoming req see
system.mem_ctrl.wrQLenPdf::42                       0                       # What write queue length does an incoming req see
system.mem_ctrl.wrQLenPdf::43                       0                       # What write queue length does an incoming req see
system.mem_ctrl.wrQLenPdf::44                       0                       # What write queue length does an incoming req see
system.mem_ctrl.wrQLenPdf::45                       0                       # What write queue length does an incoming req see
system.mem_ctrl.wrQLenPdf::46                       0                       # What write queue length does an incoming req see
system.mem_ctrl.wrQLenPdf::47                       0                       # What write queue length does an incoming req see
system.mem_ctrl.wrQLenPdf::48                       0                       # What write queue length does an incoming req see
system.mem_ctrl.wrQLenPdf::49                       0                       # What write queue length does an incoming req see
system.mem_ctrl.wrQLenPdf::50                       0                       # What write queue length does an incoming req see
system.mem_ctrl.wrQLenPdf::51                       0                       # What write queue length does an incoming req see
system.mem_ctrl.wrQLenPdf::52                       0                       # What write queue length does an incoming req see
system.mem_ctrl.wrQLenPdf::53                       0                       # What write queue length does an incoming req see
system.mem_ctrl.wrQLenPdf::54                       0                       # What write queue length does an incoming req see
system.mem_ctrl.wrQLenPdf::55                       0                       # What write queue length does an incoming req see
system.mem_ctrl.wrQLenPdf::56                       0                       # What write queue length does an incoming req see
system.mem_ctrl.wrQLenPdf::57                       0                       # What write queue length does an incoming req see
system.mem_ctrl.wrQLenPdf::58                       0                       # What write queue length does an incoming req see
system.mem_ctrl.wrQLenPdf::59                       0                       # What write queue length does an incoming req see
system.mem_ctrl.wrQLenPdf::60                       0                       # What write queue length does an incoming req see
system.mem_ctrl.wrQLenPdf::61                       0                       # What write queue length does an incoming req see
system.mem_ctrl.wrQLenPdf::62                       0                       # What write queue length does an incoming req see
system.mem_ctrl.wrQLenPdf::63                       0                       # What write queue length does an incoming req see
system.mem_ctrl.bytesPerActivate::samples         4568                       # Bytes accessed per row activation
system.mem_ctrl.bytesPerActivate::mean     205.155867                       # Bytes accessed per row activation
system.mem_ctrl.bytesPerActivate::gmean    142.573652                       # Bytes accessed per row activation
system.mem_ctrl.bytesPerActivate::stdev    206.248564                       # Bytes accessed per row activation
system.mem_ctrl.bytesPerActivate::0-127          1854     40.59%     40.59% # Bytes accessed per row activation
system.mem_ctrl.bytesPerActivate::128-255         1333     29.18%     69.77% # Bytes accessed per row activation
system.mem_ctrl.bytesPerActivate::256-383          673     14.73%     84.50% # Bytes accessed per row activation
system.mem_ctrl.bytesPerActivate::384-511          280      6.13%     90.63% # Bytes accessed per row activation
system.mem_ctrl.bytesPerActivate::512-639          150      3.28%     93.91% # Bytes accessed per row activation
system.mem_ctrl.bytesPerActivate::640-767          101      2.21%     96.13% # Bytes accessed per row activation
system.mem_ctrl.bytesPerActivate::768-895           41      0.90%     97.02% # Bytes accessed per row activation
system.mem_ctrl.bytesPerActivate::896-1023           43      0.94%     97.96% # Bytes accessed per row activation
system.mem_ctrl.bytesPerActivate::1024-1151           93      2.04%    100.00% # Bytes accessed per row activation
system.mem_ctrl.bytesPerActivate::total          4568                       # Bytes accessed per row activation
system.mem_ctrl.rdPerTurnAround::samples          166                       # Reads before turning the bus around for writes
system.mem_ctrl.rdPerTurnAround::mean       70.981928                       # Reads before turning the bus around for writes
system.mem_ctrl.rdPerTurnAround::gmean      45.254186                       # Reads before turning the bus around for writes
system.mem_ctrl.rdPerTurnAround::stdev     124.056608                       # Reads before turning the bus around for writes
system.mem_ctrl.rdPerTurnAround::0-31              56     33.73%     33.73% # Reads before turning the bus around for writes
system.mem_ctrl.rdPerTurnAround::32-63             66     39.76%     73.49% # Reads before turning the bus around for writes
system.mem_ctrl.rdPerTurnAround::64-95             27     16.27%     89.76% # Reads before turning the bus around for writes
system.mem_ctrl.rdPerTurnAround::96-127             5      3.01%     92.77% # Reads before turning the bus around for writes
system.mem_ctrl.rdPerTurnAround::128-159            2      1.20%     93.98% # Reads before turning the bus around for writes
system.mem_ctrl.rdPerTurnAround::160-191            2      1.20%     95.18% # Reads before turning the bus around for writes
system.mem_ctrl.rdPerTurnAround::224-255            1      0.60%     95.78% # Reads before turning the bus around for writes
system.mem_ctrl.rdPerTurnAround::256-287            1      0.60%     96.39% # Reads before turning the bus around for writes
system.mem_ctrl.rdPerTurnAround::288-319            1      0.60%     96.99% # Reads before turning the bus around for writes
system.mem_ctrl.rdPerTurnAround::352-383            1      0.60%     97.59% # Reads before turning the bus around for writes
system.mem_ctrl.rdPerTurnAround::416-447            1      0.60%     98.19% # Reads before turning the bus around for writes
system.mem_ctrl.rdPerTurnAround::832-863            1      0.60%     98.80% # Reads before turning the bus around for writes
system.mem_ctrl.rdPerTurnAround::864-895            1      0.60%     99.40% # Reads before turning the bus around for writes
system.mem_ctrl.rdPerTurnAround::928-959            1      0.60%    100.00% # Reads before turning the bus around for writes
system.mem_ctrl.rdPerTurnAround::total            166                       # Reads before turning the bus around for writes
system.mem_ctrl.wrPerTurnAround::samples          166                       # Writes before turning the bus around for reads
system.mem_ctrl.wrPerTurnAround::mean       17.186747                       # Writes before turning the bus around for reads
system.mem_ctrl.wrPerTurnAround::gmean      17.155177                       # Writes before turning the bus around for reads
system.mem_ctrl.wrPerTurnAround::stdev       1.042174                       # Writes before turning the bus around for reads
system.mem_ctrl.wrPerTurnAround::16                68     40.96%     40.96% # Writes before turning the bus around for reads
system.mem_ctrl.wrPerTurnAround::17                 8      4.82%     45.78% # Writes before turning the bus around for reads
system.mem_ctrl.wrPerTurnAround::18                81     48.80%     94.58% # Writes before turning the bus around for reads
system.mem_ctrl.wrPerTurnAround::19                 9      5.42%    100.00% # Writes before turning the bus around for reads
system.mem_ctrl.wrPerTurnAround::total            166                       # Writes before turning the bus around for reads
system.mem_ctrl.bytesReadDRAM                  754560                       # Total number of bytes read from DRAM
system.mem_ctrl.bytesReadWrQ                     8192                       # Total number of bytes read from write queue
system.mem_ctrl.bytesWritten                   182592                       # Total number of bytes written to DRAM
system.mem_ctrl.bytesReadSys                   762752                       # Total read bytes from the system interface side
system.mem_ctrl.bytesWrittenSys                320000                       # Total written bytes from the system interface side
system.mem_ctrl.avgRdBW                        167.36                       # Average DRAM read bandwidth in MiByte/s
system.mem_ctrl.avgWrBW                         40.50                       # Average achieved write bandwidth in MiByte/s
system.mem_ctrl.avgRdBWSys                     169.17                       # Average system read bandwidth in MiByte/s
system.mem_ctrl.avgWrBWSys                      70.97                       # Average system write bandwidth in MiByte/s
system.mem_ctrl.peakBW                       12800.00                       # Theoretical peak bandwidth in MiByte/s
system.mem_ctrl.busUtil                          1.62                       # Data bus utilization in percentage
system.mem_ctrl.busUtilRead                      1.31                       # Data bus utilization in percentage for reads
system.mem_ctrl.busUtilWrite                     0.32                       # Data bus utilization in percentage for writes
system.mem_ctrl.totGap                     4508008000                       # Total gap between requests
system.mem_ctrl.avgGap                      266462.23                       # Average gap between requests
system.mem_ctrl.masterReadBytes::.cpu.inst       395840                       # Per-master bytes read from memory
system.mem_ctrl.masterReadBytes::.cpu.data       358720                       # Per-master bytes read from memory
system.mem_ctrl.masterWriteBytes::.writebacks       182592                       # Per-master bytes write to memory
system.mem_ctrl.masterReadRate::.cpu.inst 87794571.703151255846                       # Per-master bytes read from memory rate (Bytes/sec)
system.mem_ctrl.masterReadRate::.cpu.data 79561612.675208210945                       # Per-master bytes read from memory rate (Bytes/sec)
system.mem_ctrl.masterWriteRate::.writebacks 40497641.563312940300                       # Per-master bytes write to memory rate (Bytes/sec)
system.mem_ctrl.masterReadAccesses::.cpu.inst         6185                       # Per-master read serviced memory accesses
system.mem_ctrl.masterReadAccesses::.cpu.data         5733                       # Per-master read serviced memory accesses
system.mem_ctrl.masterWriteAccesses::.writebacks         5000                       # Per-master write serviced memory accesses
system.mem_ctrl.masterReadTotalLat::.cpu.inst    186514750                       # Per-master read total memory access latency
system.mem_ctrl.masterReadTotalLat::.cpu.data    161736500                       # Per-master read total memory access latency
system.mem_ctrl.masterWriteTotalLat::.writebacks 106038798500                       # Per-master write total memory access latency
system.mem_ctrl.masterReadAvgLat::.cpu.inst     30155.98                       # Per-master read average memory access latency
system.mem_ctrl.masterReadAvgLat::.cpu.data     28211.49                       # Per-master read average memory access latency
system.mem_ctrl.masterWriteAvgLat::.writebacks  21207759.70                       # Per-master write average memory access latency
system.mem_ctrl.pageHitRate                     68.70                       # Row buffer hit rate, read and write combined
system.mem_ctrl.rank1.actEnergy              15615180                       # Energy for activate commands per rank (pJ)
system.mem_ctrl.rank1.preEnergy               8299665                       # Energy for precharge commands per rank (pJ)
system.mem_ctrl.rank1.readEnergy             45688860                       # Energy for read commands per rank (pJ)
system.mem_ctrl.rank1.writeEnergy             6128280                       # Energy for write commands per rank (pJ)
system.mem_ctrl.rank1.refreshEnergy      355876560.000000                       # Energy for refresh commands per rank (pJ)
system.mem_ctrl.rank1.actBackEnergy        1741298700                       # Energy for active background per rank (pJ)
system.mem_ctrl.rank1.preBackEnergy         264986880                       # Energy for precharge background per rank (pJ)
system.mem_ctrl.rank1.actPowerDownEnergy            0                       # Energy for active power-down per rank (pJ)
system.mem_ctrl.rank1.prePowerDownEnergy            0                       # Energy for precharge power-down per rank (pJ)
system.mem_ctrl.rank1.selfRefreshEnergy             0                       # Energy for self refresh per rank (pJ)
system.mem_ctrl.rank1.totalEnergy          2437894125                       # Total energy per rank (pJ)
system.mem_ctrl.rank1.averagePower         540.708040                       # Core power per rank (mW)
system.mem_ctrl.rank1.totalIdleTime                 0                       # Total Idle time Per DRAM Rank
system.mem_ctrl.rank1.memoryStateTime::IDLE    673895750                       # Time in different power states
system.mem_ctrl.rank1.memoryStateTime::REF    150540000                       # Time in different power states
system.mem_ctrl.rank1.memoryStateTime::SREF            0                       # Time in different power states
system.mem_ctrl.rank1.memoryStateTime::PRE_PDN            0                       # Time in different power states
system.mem_ctrl.rank1.memoryStateTime::ACT   3684271250                       # Time in different power states
system.mem_ctrl.rank1.memoryStateTime::ACT_PDN            0                       # Time in different power states
system.mem_ctrl.rank0.actEnergy              17000340                       # Energy for activate commands per rank (pJ)
system.mem_ctrl.rank0.preEnergy               9035895                       # Energy for precharge commands per rank (pJ)
system.mem_ctrl.rank0.readEnergy             38491740                       # Energy for read commands per rank (pJ)
system.mem_ctrl.rank0.writeEnergy             8764380                       # Energy for write commands per rank (pJ)
system.mem_ctrl.rank0.refreshEnergy      355876560.000000                       # Energy for refresh commands per rank (pJ)
system.mem_ctrl.rank0.actBackEnergy        1521813930                       # Energy for active background per rank (pJ)
system.mem_ctrl.rank0.preBackEnergy         449816160                       # Energy for precharge background per rank (pJ)
system.mem_ctrl.rank0.actPowerDownEnergy            0                       # Energy for active power-down per rank (pJ)
system.mem_ctrl.rank0.prePowerDownEnergy            0                       # Energy for precharge power-down per rank (pJ)
system.mem_ctrl.rank0.selfRefreshEnergy             0                       # Energy for self refresh per rank (pJ)
system.mem_ctrl.rank0.totalEnergy          2400799005                       # Total energy per rank (pJ)
system.mem_ctrl.rank0.averagePower         532.480599                       # Core power per rank (mW)
system.mem_ctrl.rank0.totalIdleTime                 0                       # Total Idle time Per DRAM Rank
system.mem_ctrl.rank0.memoryStateTime::IDLE   1154583500                       # Time in different power states
system.mem_ctrl.rank0.memoryStateTime::REF    150540000                       # Time in different power states
system.mem_ctrl.rank0.memoryStateTime::SREF            0                       # Time in different power states
system.mem_ctrl.rank0.memoryStateTime::PRE_PDN            0                       # Time in different power states
system.mem_ctrl.rank0.memoryStateTime::ACT   3203583500                       # Time in different power states
system.mem_ctrl.rank0.memoryStateTime::ACT_PDN            0                       # Time in different power states
system.mem_ctrl.power_state.pwrStateResidencyTicks::UNDEFINED   4508707000                       # Cumulative time (in ticks) in various power states
system.cache_medium.blocked_cycles::no_mshrs            0                       # number of cycles access was blocked
system.cache_medium.blocked_cycles::no_targets            0                       # number of cycles access was blocked
system.cache_medium.blocked::no_mshrs               0                       # number of cycles access was blocked
system.cache_medium.blocked::no_targets             0                       # number of cycles access was blocked
system.cache_medium.avg_blocked_cycles::no_mshrs          nan                       # average number of cycles each access was blocked
system.cache_medium.avg_blocked_cycles::no_targets          nan                       # average number of cycles each access was blocked
system.cache_medium.replacements                    0                       # number of replacements
system.cache_medium.power_state.pwrStateResidencyTicks::UNDEFINED   4508707000                       # Cumulative time (in ticks) in various power states
system.cache_medium.tags.tagsinuse                  0                       # Cycle average of tags in use
system.cache_medium.tags.total_refs                 0                       # Total number of references to valid blocks.
system.cache_medium.tags.sampled_refs               0                       # Sample count of references to valid blocks.
system.cache_medium.tags.avg_refs                 nan                       # Average number of references to valid blocks.
system.cache_medium.tags.warmup_cycle               0                       # Cycle when the warmup percentage was hit.
system.cache_medium.tags.tag_accesses               0                       # Number of tag accesses
system.cache_medium.tags.data_accesses              0                       # Number of data accesses
system.cache_medium.tags.power_state.pwrStateResidencyTicks::UNDEFINED   4508707000                       # Cumulative time (in ticks) in various power states
system.clk_domain.clock                          1000                       # Clock period in ticks
system.clk_domain.voltage_domain.voltage            1                       # Voltage in Volts
system.dcache.demand_hits::.cpu.data           373165                       # number of demand (read+write) hits
system.dcache.demand_hits::total               373165                       # number of demand (read+write) hits
system.dcache.overall_hits::.cpu.data          373255                       # number of overall hits
system.dcache.overall_hits::total              373255                       # number of overall hits
system.dcache.demand_misses::.cpu.data           8879                       # number of demand (read+write) misses
system.dcache.demand_misses::total               8879                       # number of demand (read+write) misses
system.dcache.overall_misses::.cpu.data          8917                       # number of overall misses
system.dcache.overall_misses::total              8917                       # number of overall misses
system.dcache.demand_miss_latency::.cpu.data    472049000                       # number of demand (read+write) miss cycles
system.dcache.demand_miss_latency::total    472049000                       # number of demand (read+write) miss cycles
system.dcache.overall_miss_latency::.cpu.data    473923000                       # number of overall miss cycles
system.dcache.overall_miss_latency::total    473923000                       # number of overall miss cycles
system.dcache.demand_accesses::.cpu.data       382044                       # number of demand (read+write) accesses
system.dcache.demand_accesses::total           382044                       # number of demand (read+write) accesses
system.dcache.overall_accesses::.cpu.data       382172                       # number of overall (read+write) accesses
system.dcache.overall_accesses::total          382172                       # number of overall (read+write) accesses
system.dcache.demand_miss_rate::.cpu.data     0.023241                       # miss rate for demand accesses
system.dcache.demand_miss_rate::total        0.023241                       # miss rate for demand accesses
system.dcache.overall_miss_rate::.cpu.data     0.023332                       # miss rate for overall accesses
system.dcache.overall_miss_rate::total       0.023332                       # miss rate for overall accesses
system.dcache.demand_avg_miss_latency::.cpu.data 53164.658182                       # average overall miss latency
system.dcache.demand_avg_miss_latency::total 53164.658182                       # average overall miss latency
system.dcache.overall_avg_miss_latency::.cpu.data 53148.256140                       # average overall miss latency
system.dcache.overall_avg_miss_latency::total 53148.256140                       # average overall miss latency
system.dcache.blocked_cycles::no_mshrs              0                       # number of cycles access was blocked
system.dcache.blocked_cycles::no_targets            0                       # number of cycles access was blocked
system.dcache.blocked::no_mshrs                     0                       # number of cycles access was blocked
system.dcache.blocked::no_targets                   0                       # number of cycles access was blocked
system.dcache.avg_blocked_cycles::no_mshrs          nan                       # average number of cycles each access was blocked
system.dcache.avg_blocked_cycles::no_targets          nan                       # average number of cycles each access was blocked
system.dcache.writebacks::.writebacks            5563                       # number of writebacks
system.dcache.writebacks::total                  5563                       # number of writebacks
system.dcache.demand_mshr_misses::.cpu.data         8879                       # number of demand (read+write) MSHR misses
system.dcache.demand_mshr_misses::total          8879                       # number of demand (read+write) MSHR misses
system.dcache.overall_mshr_misses::.cpu.data         8917                       # number of overall MSHR misses
system.dcache.overall_mshr_misses::total         8917                       # number of overall MSHR misses
system.dcache.demand_mshr_miss_latency::.cpu.data    454293000                       # number of demand (read+write) MSHR miss cycles
system.dcache.demand_mshr_miss_latency::total    454293000                       # number of demand (read+write) MSHR miss cycles
system.dcache.overall_mshr_miss_latency::.cpu.data    456091000                       # number of overall MSHR miss cycles
system.dcache.overall_mshr_miss_latency::total    456091000                       # number of overall MSHR miss cycles
system.dcache.demand_mshr_miss_rate::.cpu.data     0.023241                       # mshr miss rate for demand accesses
system.dcache.demand_mshr_miss_rate::total     0.023241                       # mshr miss rate for demand accesses
system.dcache.overall_mshr_miss_rate::.cpu.data     0.023332                       # mshr miss rate for overall accesses
system.dcache.overall_mshr_miss_rate::total     0.023332                       # mshr miss rate for overall accesses
system.dcache.demand_avg_mshr_miss_latency::.cpu.data 51164.883433                       # average overall mshr miss latency
system.dcache.demand_avg_mshr_miss_latency::total 51164.883433                       # average overall mshr miss latency
system.dcache.overall_avg_mshr_miss_latency::.cpu.data 51148.480431                       # average overall mshr miss latency
system.dcache.overall_avg_mshr_miss_latency::total 51148.480431                       # average overall mshr miss latency
system.dcache.replacements                       8660                       # number of replacements
system.dcache.ReadReq_hits::.cpu.data          202947                       # number of ReadReq hits
system.dcache.ReadReq_hits::total              202947                       # number of ReadReq hits
system.dcache.ReadReq_misses::.cpu.data          5550                       # number of ReadReq misses
system.dcache.ReadReq_misses::total              5550                       # number of ReadReq misses
system.dcache.ReadReq_miss_latency::.cpu.data    270623000                       # number of ReadReq miss cycles
system.dcache.ReadReq_miss_latency::total    270623000                       # number of ReadReq miss cycles
system.dcache.ReadReq_accesses::.cpu.data       208497                       # number of ReadReq accesses(hits+misses)
system.dcache.ReadReq_accesses::total          208497                       # number of ReadReq accesses(hits+misses)
system.dcache.ReadReq_miss_rate::.cpu.data     0.026619                       # miss rate for ReadReq accesses
system.dcache.ReadReq_miss_rate::total       0.026619                       # miss rate for ReadReq accesses
system.dcache.ReadReq_avg_miss_latency::.cpu.data 48760.900901                       # average ReadReq miss latency
system.dcache.ReadReq_avg_miss_latency::total 48760.900901                       # average ReadReq miss latency
system.dcache.ReadReq_mshr_misses::.cpu.data         5550                       # number of ReadReq MSHR misses
system.dcache.ReadReq_mshr_misses::total         5550                       # number of ReadReq MSHR misses
system.dcache.ReadReq_mshr_miss_latency::.cpu.data    259525000                       # number of ReadReq MSHR miss cycles
system.dcache.ReadReq_mshr_miss_latency::total    259525000                       # number of ReadReq MSHR miss cycles
system.dcache.ReadReq_mshr_miss_rate::.cpu.data     0.026619                       # mshr miss rate for ReadReq accesses
system.dcache.ReadReq_mshr_miss_rate::total     0.026619                       # mshr miss rate for ReadReq accesses
system.dcache.ReadReq_avg_mshr_miss_latency::.cpu.data 46761.261261                       # average ReadReq mshr miss latency
system.dcache.ReadReq_avg_mshr_miss_latency::total 46761.261261                       # average ReadReq mshr miss latency
system.dcache.WriteReq_hits::.cpu.data         170218                       # number of WriteReq hits
system.dcache.WriteReq_hits::total             170218                       # number of WriteReq hits
system.dcache.WriteReq_misses::.cpu.data         3329                       # number of WriteReq misses
system.dcache.WriteReq_misses::total             3329                       # number of WriteReq misses
system.dcache.WriteReq_miss_latency::.cpu.data    201426000                       # number of WriteReq miss cycles
system.dcache.WriteReq_miss_latency::total    201426000                       # number of WriteReq miss cycles
system.dcache.WriteReq_accesses::.cpu.data       173547                       # number of WriteReq accesses(hits+misses)
system.dcache.WriteReq_accesses::total         173547                       # number of WriteReq accesses(hits+misses)
system.dcache.WriteReq_miss_rate::.cpu.data     0.019182                       # miss rate for WriteReq accesses
system.dcache.WriteReq_miss_rate::total      0.019182                       # miss rate for WriteReq accesses
system.dcache.WriteReq_avg_miss_latency::.cpu.data 60506.458396                       # average WriteReq miss latency
system.dcache.WriteReq_avg_miss_latency::total 60506.458396                       # average WriteReq miss latency
system.dcache.WriteReq_mshr_misses::.cpu.data         3329                       # number of WriteReq MSHR misses
system.dcache.WriteReq_mshr_misses::total         3329                       # number of WriteReq MSHR misses
system.dcache.WriteReq_mshr_miss_latency::.cpu.data    194768000                       # number of WriteReq MSHR miss cycles
system.dcache.WriteReq_mshr_miss_latency::total    194768000                       # number of WriteReq MSHR miss cycles
system.dcache.WriteReq_mshr_miss_rate::.cpu.data     0.019182                       # mshr miss rate for WriteReq accesses
system.dcache.WriteReq_mshr_miss_rate::total     0.019182                       # mshr miss rate for WriteReq accesses
system.dcache.WriteReq_avg_mshr_miss_latency::.cpu.data 58506.458396                       # average WriteReq mshr miss latency
system.dcache.WriteReq_avg_mshr_miss_latency::total 58506.458396                       # average WriteReq mshr miss latency
system.dcache.SoftPFReq_hits::.cpu.data            90                       # number of SoftPFReq hits
system.dcache.SoftPFReq_hits::total                90                       # number of SoftPFReq hits
system.dcache.SoftPFReq_misses::.cpu.data           38                       # number of SoftPFReq misses
system.dcache.SoftPFReq_misses::total              38                       # number of SoftPFReq misses
system.dcache.SoftPFReq_miss_latency::.cpu.data      1874000                       # number of SoftPFReq miss cycles
system.dcache.SoftPFReq_miss_latency::total      1874000                       # number of SoftPFReq miss cycles
system.dcache.SoftPFReq_accesses::.cpu.data          128                       # number of SoftPFReq accesses(hits+misses)
system.dcache.SoftPFReq_accesses::total           128                       # number of SoftPFReq accesses(hits+misses)
system.dcache.SoftPFReq_miss_rate::.cpu.data     0.296875                       # miss rate for SoftPFReq accesses
system.dcache.SoftPFReq_miss_rate::total     0.296875                       # miss rate for SoftPFReq accesses
system.dcache.SoftPFReq_avg_miss_latency::.cpu.data 49315.789474                       # average SoftPFReq miss latency
system.dcache.SoftPFReq_avg_miss_latency::total 49315.789474                       # average SoftPFReq miss latency
system.dcache.SoftPFReq_mshr_misses::.cpu.data           38                       # number of SoftPFReq MSHR misses
system.dcache.SoftPFReq_mshr_misses::total           38                       # number of SoftPFReq MSHR misses
system.dcache.SoftPFReq_mshr_miss_latency::.cpu.data      1798000                       # number of SoftPFReq MSHR miss cycles
system.dcache.SoftPFReq_mshr_miss_latency::total      1798000                       # number of SoftPFReq MSHR miss cycles
system.dcache.SoftPFReq_mshr_miss_rate::.cpu.data     0.296875                       # mshr miss rate for SoftPFReq accesses
system.dcache.SoftPFReq_mshr_miss_rate::total     0.296875                       # mshr miss rate for SoftPFReq accesses
system.dcache.SoftPFReq_avg_mshr_miss_latency::.cpu.data 47315.789474                       # average SoftPFReq mshr miss latency
system.dcache.SoftPFReq_avg_mshr_miss_latency::total 47315.789474                       # average SoftPFReq mshr miss latency
system.dcache.power_state.pwrStateResidencyTicks::UNDEFINED   4508707000                       # Cumulative time (in ticks) in various power states
system.dcache.tags.tagsinuse               252.249152                       # Cycle average of tags in use
system.dcache.tags.total_refs                  370547                       # Total number of references to valid blocks.
system.dcache.tags.sampled_refs                  8660                       # Sample count of references to valid blocks.
system.dcache.tags.avg_refs                 42.788337                       # Average number of references to valid blocks.
system.dcache.tags.warmup_cycle                167000                       # Cycle when the warmup percentage was hit.
system.dcache.tags.occ_blocks::.cpu.data   252.249152                       # Average occupied blocks per requestor
system.dcache.tags.occ_percent::.cpu.data     0.985348                       # Average percentage of cache occupancy
system.dcache.tags.occ_percent::total        0.985348                       # Average percentage of cache occupancy
system.dcache.tags.occ_task_id_blocks::1024          256                       # Occupied blocks per task id
system.dcache.tags.age_task_id_blocks_1024::0           12                       # Occupied blocks per task id
system.dcache.tags.age_task_id_blocks_1024::1          107                       # Occupied blocks per task id
system.dcache.tags.age_task_id_blocks_1024::2          137                       # Occupied blocks per task id
system.dcache.tags.occ_task_id_percent::1024            1                       # Percentage of cache occupancy per task id
system.dcache.tags.tag_accesses                391088                       # Number of tag accesses
system.dcache.tags.data_accesses               391088                       # Number of data accesses
system.dcache.tags.power_state.pwrStateResidencyTicks::UNDEFINED   4508707000                       # Cumulative time (in ticks) in various power states
system.cache_large.blocked_cycles::no_mshrs            0                       # number of cycles access was blocked
system.cache_large.blocked_cycles::no_targets            0                       # number of cycles access was blocked
system.cache_large.blocked::no_mshrs                0                       # number of cycles access was blocked
system.cache_large.blocked::no_targets              0                       # number of cycles access was blocked
system.cache_large.avg_blocked_cycles::no_mshrs          nan                       # average number of cycles each access was blocked
system.cache_large.avg_blocked_cycles::no_targets          nan                       # average number of cycles each access was blocked
system.cache_large.replacements                     0                       # number of replacements
system.cache_large.power_state.pwrStateResidencyTicks::UNDEFINED   4508707000                       # Cumulative time (in ticks) in various power states
system.cache_large.tags.tagsinuse                   0                       # Cycle average of tags in use
system.cache_large.tags.total_refs                  0                       # Total number of references to valid blocks.
system.cache_large.tags.sampled_refs                0                       # Sample count of references to valid blocks.
[...]
system.dcache.tags.age_task_id_blocks_1024::1           72                       # Occupied blocks per task id
system.dcache.tags.age_task_id_blocks_1024::2          162                       # Occupied blocks per task id
system.dcache.tags.occ_task_id_percent::1024            1                       # Percentage of cache occupancy per task id
system.dcache.tags.tag_accesses               2961275                       # Number of tag accesses
system.dcache.tags.data_accesses              2961275                       # Number of data accesses
system.dcache.tags.power_state.pwrStateResidencyTicks::UNDEFINED  44161795000                       # Cumulative time (in ticks) in various power states
system.cache_large.blocked_cycles::no_mshrs            0                       # number of cycles access was blocked
system.cache_large.blocked_cycles::no_targets            0                       # number of cycles access was blocked
system.cache_large.blocked::no_mshrs                0                       # number of cycles access was blocked
system.cache_large.blocked::no_targets              0                       # number of cycles access was blocked
system.cache_large.avg_blocked_cycles::no_mshrs          nan                       # average number of cycles each access was blocked
system.cache_large.avg_blocked_cycles::no_targets          nan                       # average number of cycles each access was blocked
system.cache_large.replacements                     0                       # number of replacements
system.cache_large.power_state.pwrStateResidencyTicks::UNDEFINED  44161795000                       # Cumulative time (in ticks) in various power states
system.cache_large.tags.tagsinuse                   0                       # Cycle average of tags in use
system.cache_large.tags.total_refs                  0                       # Total number of references to valid blocks.
system.cache_large.tags.sampled_refs                0                       # Sample count of references to valid blocks.
system.cache_large.tags.avg_refs                  nan                       # Average number of references to valid blocks.
system.cache_large.tags.warmup_cycle                0                       # Cycle when the warmup percentage was hit.
system.cache_large.tags.tag_accesses                0                       # Number of tag accesses
system.cache_large.tags.data_accesses               0                       # Number of data accesses
system.cache_large.tags.power_state.pwrStateResidencyTicks::UNDEFINED  44161795000                       # Cumulative time (in ticks) in various power states
system.l2cache.demand_hits::.cpu.inst           78619                       # number of demand (read+write) hits
system.l2cache.demand_hits::.cpu.data           51267                       # number of demand (read+write) hits
system.l2cache.demand_hits::total              129886                       # number of demand (read+write) hits
system.l2cache.overall_hits::.cpu.inst          78619                       # number of overall hits
system.l2cache.overall_hits::.cpu.data          51267                       # number of overall hits
system.l2cache.overall_hits::total             129886                       # number of overall hits
system.l2cache.demand_misses::.cpu.inst        178146                       # number of demand (read+write) misses
system.l2cache.demand_misses::.cpu.data         69007                       # number of demand (read+write) misses
system.l2cache.demand_misses::total            247153                       # number of demand (read+write) misses
system.l2cache.overall_misses::.cpu.inst       178146                       # number of overall misses
system.l2cache.overall_misses::.cpu.data        69007                       # number of overall misses
system.l2cache.overall_misses::total           247153                       # number of overall misses
system.l2cache.demand_miss_latency::.cpu.inst  12487416000                       # number of demand (read+write) miss cycles
system.l2cache.demand_miss_latency::.cpu.data   4765084000                       # number of demand (read+write) miss cycles
system.l2cache.demand_miss_latency::total  17252500000                       # number of demand (read+write) miss cycles
system.l2cache.overall_miss_latency::.cpu.inst  12487416000                       # number of overall miss cycles
system.l2cache.overall_miss_latency::.cpu.data   4765084000                       # number of overall miss cycles
system.l2cache.overall_miss_latency::total  17252500000                       # number of overall miss cycles
system.l2cache.demand_accesses::.cpu.inst       256765                       # number of demand (read+write) accesses
system.l2cache.demand_accesses::.cpu.data       120274                       # number of demand (read+write) accesses
system.l2cache.demand_accesses::total          377039                       # number of demand (read+write) accesses
system.l2cache.overall_accesses::.cpu.inst       256765                       # number of overall (read+write) accesses
system.l2cache.overall_accesses::.cpu.data       120274                       # number of overall (read+write) accesses
system.l2cache.overall_accesses::total         377039                       # number of overall (read+write) accesses
system.l2cache.demand_miss_rate::.cpu.inst     0.693810                       # miss rate for demand accesses
system.l2cache.demand_miss_rate::.cpu.data     0.573748                       # miss rate for demand accesses
system.l2cache.demand_miss_rate::total       0.655510                       # miss rate for demand accesses
system.l2cache.overall_miss_rate::.cpu.inst     0.693810                       # miss rate for overall accesses
system.l2cache.overall_miss_rate::.cpu.data     0.573748                       # miss rate for overall accesses
system.l2cache.overall_miss_rate::total      0.655510                       # miss rate for overall accesses
system.l2cache.demand_avg_miss_latency::.cpu.inst 70096.527567                       # average overall miss latency
system.l2cache.demand_avg_miss_latency::.cpu.data 69052.183112                       # average overall miss latency
system.l2cache.demand_avg_miss_latency::total 69804.938641                       # average overall miss latency
system.l2cache.overall_avg_miss_latency::.cpu.inst 70096.527567                       # average overall miss latency
system.l2cache.overall_avg_miss_latency::.cpu.data 69052.183112                       # average overall miss latency
system.l2cache.overall_avg_miss_latency::total 69804.938641                       # average overall miss latency
system.l2cache.blocked_cycles::no_mshrs             0                       # number of cycles access was blocked
system.l2cache.blocked_cycles::no_targets            0                       # number of cycles access was blocked
system.l2cache.blocked::no_mshrs                    0                       # number of cycles access was blocked
system.l2cache.blocked::no_targets                  0                       # number of cycles access was blocked
system.l2cache.avg_blocked_cycles::no_mshrs          nan                       # average number of cycles each access was blocked
system.l2cache.avg_blocked_cycles::no_targets          nan                       # average number of cycles each access was blocked
system.l2cache.writebacks::.writebacks          40742                       # number of writebacks
system.l2cache.writebacks::total                40742                       # number of writebacks
system.l2cache.demand_mshr_misses::.cpu.inst       178146                       # number of demand (read+write) MSHR misses
system.l2cache.demand_mshr_misses::.cpu.data        69007                       # number of demand (read+write) MSHR misses
system.l2cache.demand_mshr_misses::total       247153                       # number of demand (read+write) MSHR misses
system.l2cache.overall_mshr_misses::.cpu.inst       178146                       # number of overall MSHR misses
system.l2cache.overall_mshr_misses::.cpu.data        69007                       # number of overall MSHR misses
system.l2cache.overall_mshr_misses::total       247153                       # number of overall MSHR misses
system.l2cache.demand_mshr_miss_latency::.cpu.inst  12131124000                       # number of demand (read+write) MSHR miss cycles
system.l2cache.demand_mshr_miss_latency::.cpu.data   4627070000                       # number of demand (read+write) MSHR miss cycles
system.l2cache.demand_mshr_miss_latency::total  16758194000                       # number of demand (read+write) MSHR miss cycles
system.l2cache.overall_mshr_miss_latency::.cpu.inst  12131124000                       # number of overall MSHR miss cycles
system.l2cache.overall_mshr_miss_latency::.cpu.data   4627070000                       # number of overall MSHR miss cycles
system.l2cache.overall_mshr_miss_latency::total  16758194000                       # number of overall MSHR miss cycles
system.l2cache.demand_mshr_miss_rate::.cpu.inst     0.693810                       # mshr miss rate for demand accesses
system.l2cache.demand_mshr_miss_rate::.cpu.data     0.573748                       # mshr miss rate for demand accesses
system.l2cache.demand_mshr_miss_rate::total     0.655510                       # mshr miss rate for demand accesses
system.l2cache.overall_mshr_miss_rate::.cpu.inst     0.693810                       # mshr miss rate for overall accesses
system.l2cache.overall_mshr_miss_rate::.cpu.data     0.573748                       # mshr miss rate for overall accesses
system.l2cache.overall_mshr_miss_rate::total     0.655510                       # mshr miss rate for overall accesses
system.l2cache.demand_avg_mshr_miss_latency::.cpu.inst 68096.527567                       # average overall mshr miss latency
system.l2cache.demand_avg_mshr_miss_latency::.cpu.data 67052.183112                       # average overall mshr miss latency
system.l2cache.demand_avg_mshr_miss_latency::total 67804.938641                       # average overall mshr miss latency
system.l2cache.overall_avg_mshr_miss_latency::.cpu.inst 68096.527567                       # average overall mshr miss latency
system.l2cache.overall_avg_mshr_miss_latency::.cpu.data 67052.183112                       # average overall mshr miss latency
system.l2cache.overall_avg_mshr_miss_latency::total 67804.938641                       # average overall mshr miss latency
system.l2cache.replacements                    279341                       # number of replacements
system.l2cache.ReadReq_hits::.cpu.inst          78619                       # number of ReadReq hits
system.l2cache.ReadReq_hits::.cpu.data          51267                       # number of ReadReq hits
system.l2cache.ReadReq_hits::total             129886                       # number of ReadReq hits
system.l2cache.ReadReq_misses::.cpu.inst       178146                       # number of ReadReq misses
system.l2cache.ReadReq_misses::.cpu.data        69007                       # number of ReadReq misses
system.l2cache.ReadReq_misses::total           247153                       # number of ReadReq misses
system.l2cache.ReadReq_miss_latency::.cpu.inst  12487416000                       # number of ReadReq miss cycles
system.l2cache.ReadReq_miss_latency::.cpu.data   4765084000                       # number of ReadReq miss cycles
system.l2cache.ReadReq_miss_latency::total  17252500000                       # number of ReadReq miss cycles
system.l2cache.ReadReq_accesses::.cpu.inst       256765                       # number of ReadReq accesses(hits+misses)
system.l2cache.ReadReq_accesses::.cpu.data       120274                       # number of ReadReq accesses(hits+misses)
system.l2cache.ReadReq_accesses::total         377039                       # number of ReadReq accesses(hits+misses)
system.l2cache.ReadReq_miss_rate::.cpu.inst     0.693810                       # miss rate for ReadReq accesses
system.l2cache.ReadReq_miss_rate::.cpu.data     0.573748                       # miss rate for ReadReq accesses
system.l2cache.ReadReq_miss_rate::total      0.655510                       # miss rate for ReadReq accesses
system.l2cache.ReadReq_avg_miss_latency::.cpu.inst 70096.527567                       # average ReadReq miss latency
system.l2cache.ReadReq_avg_miss_latency::.cpu.data 69052.183112                       # average ReadReq miss latency
system.l2cache.ReadReq_avg_miss_latency::total 69804.938641                       # average ReadReq miss latency
system.l2cache.ReadReq_mshr_misses::.cpu.inst       178146                       # number of ReadReq MSHR misses
system.l2cache.ReadReq_mshr_misses::.cpu.data        69007                       # number of ReadReq MSHR misses
system.l2cache.ReadReq_mshr_misses::total       247153                       # number of ReadReq MSHR misses
system.l2cache.ReadReq_mshr_miss_latency::.cpu.inst  12131124000                       # number of ReadReq MSHR miss cycles
system.l2cache.ReadReq_mshr_miss_latency::.cpu.data   4627070000                       # number of ReadReq MSHR miss cycles
system.l2cache.ReadReq_mshr_miss_latency::total  16758194000                       # number of ReadReq MSHR miss cycles
system.l2cache.ReadReq_mshr_miss_rate::.cpu.inst     0.693810                       # mshr miss rate for ReadReq accesses
system.l2cache.ReadReq_mshr_miss_rate::.cpu.data     0.573748                       # mshr miss rate for ReadReq accesses
system.l2cache.ReadReq_mshr_miss_rate::total     0.655510                       # mshr miss rate for ReadReq accesses
system.l2cache.ReadReq_avg_mshr_miss_latency::.cpu.inst 68096.527567                       # average ReadReq mshr miss latency
system.l2cache.ReadReq_avg_mshr_miss_latency::.cpu.data 67052.183112                       # average ReadReq mshr miss latency
system.l2cache.ReadReq_avg_mshr_miss_latency::total 67804.938641                       # average ReadReq mshr miss latency
system.l2cache.WritebackDirty_hits::.writebacks        52101                       # number of WritebackDirty hits
system.l2cache.WritebackDirty_hits::total        52101                       # number of WritebackDirty hits
system.l2cache.WritebackDirty_accesses::.writebacks        52101                       # number of WritebackDirty accesses(hits+misses)
system.l2cache.WritebackDirty_accesses::total        52101                       # number of WritebackDirty accesses(hits+misses)
system.l2cache.power_state.pwrStateResidencyTicks::UNDEFINED  44161795000                       # Cumulative time (in ticks) in various power states
system.l2cache.tags.tagsinuse              511.164699                       # Cycle average of tags in use
system.l2cache.tags.total_refs                 429140                       # Total number of references to valid blocks.
system.l2cache.tags.sampled_refs               279853                       # Sample count of references to valid blocks.
system.l2cache.tags.avg_refs                 1.533448                       # Average number of references to valid blocks.
system.l2cache.tags.warmup_cycle                76000                       # Cycle when the warmup percentage was hit.
system.l2cache.tags.occ_blocks::.writebacks    79.021505                       # Average occupied blocks per requestor
system.l2cache.tags.occ_blocks::.cpu.inst   192.737319                       # Average occupied blocks per requestor
system.l2cache.tags.occ_blocks::.cpu.data   239.405875                       # Average occupied blocks per requestor
system.l2cache.tags.occ_percent::.writebacks     0.154339                       # Average percentage of cache occupancy
system.l2cache.tags.occ_percent::.cpu.inst     0.376440                       # Average percentage of cache occupancy
system.l2cache.tags.occ_percent::.cpu.data     0.467590                       # Average percentage of cache occupancy
system.l2cache.tags.occ_percent::total       0.998369                       # Average percentage of cache occupancy
system.l2cache.tags.occ_task_id_blocks::1024          512                       # Occupied blocks per task id
system.l2cache.tags.age_task_id_blocks_1024::0           25                       # Occupied blocks per task id
system.l2cache.tags.age_task_id_blocks_1024::1           74                       # Occupied blocks per task id
system.l2cache.tags.age_task_id_blocks_1024::2          406                       # Occupied blocks per task id
system.l2cache.tags.age_task_id_blocks_1024::3            7                       # Occupied blocks per task id
system.l2cache.tags.occ_task_id_percent::1024            1                       # Percentage of cache occupancy per task id
system.l2cache.tags.tag_accesses               708993                       # Number of tag accesses
system.l2cache.tags.data_accesses              708993                       # Number of data accesses
system.l2cache.tags.power_state.pwrStateResidencyTicks::UNDEFINED  44161795000                       # Cumulative time (in ticks) in various power states
system.l2bar.trans_dist::ReadReq               377039                       # Transaction distribution
system.l2bar.trans_dist::ReadResp              377039                       # Transaction distribution
system.l2bar.trans_dist::WritebackDirty         52101                       # Transaction distribution
system.l2bar.pkt_count_system.dcache.mem_side::system.l2cache.cpu_side       292649                       # Packet count per connected master and slave (bytes)
system.l2bar.pkt_count_system.icache.mem_side::system.l2cache.cpu_side       513530                       # Packet count per connected master and slave (bytes)
system.l2bar.pkt_count::total                  806179                       # Packet count per connected master and slave (bytes)
system.l2bar.pkt_size_system.dcache.mem_side::system.l2cache.cpu_side     11032000                       # Cumulative packet size per connected master and slave (bytes)
system.l2bar.pkt_size_system.icache.mem_side::system.l2cache.cpu_side     16432960                       # Cumulative packet size per connected master and slave (bytes)
system.l2bar.pkt_size::total                 27464960                       # Cumulative packet size per connected master and slave (bytes)
system.l2bar.respLayer1.occupancy          1283825000                       # Layer occupancy (ticks)
system.l2bar.respLayer1.utilization               2.9                       # Layer utilization (%)
system.l2bar.reqLayer0.occupancy            637544000                       # Layer occupancy (ticks)
system.l2bar.reqLayer0.utilization                1.4                       # Layer utilization (%)
system.l2bar.respLayer0.occupancy           601370000                       # Layer occupancy (ticks)
system.l2bar.respLayer0.utilization               1.4                       # Layer utilization (%)
system.l2bar.power_state.pwrStateResidencyTicks::UNDEFINED  44161795000                       # Cumulative time (in ticks) in various power states
system.cpu.dtb.walker.power_state.pwrStateResidencyTicks::UNDEFINED  44161795000                       # Cumulative time (in ticks) in various power states
system.cpu.interrupts.clk_domain.clock          16000                       # Clock period in ticks
system.cpu.itb.walker.power_state.pwrStateResidencyTicks::UNDEFINED  44161795000                       # Cumulative time (in ticks) in various power states
system.cpu.power_state.numTransitions               1                       # Number of power state transitions
system.cpu.power_state.pwrStateResidencyTicks::ON  44161795000                       # Cumulative time (in ticks) in various power states

---------- End Simulation Statistics   ----------
