
---------- Begin Simulation Statistics ----------
final_tick                                 4267436000                       # Number of ticks from beginning of simulation (restored from checkpoints and never reset)
host_inst_rate                                 236498                       # Simulator instruction rate (inst/s)
host_mem_usage                                1307128                       # Number of bytes of host memory used
host_op_rate                                   447276                       # Simulator op (including micro ops) rate (op/s)
host_seconds                                     4.23                       # Real time elapsed on the host
host_tick_rate                             1009139601                       # Simulator tick rate (ticks/s)
sim_freq                                 1000000000000                       # Frequency of simulated ticks
sim_insts                                     1000033                       # Number of instructions simulated
sim_ops                                       1891410                       # Number of ops (including micro ops) simulated
sim_seconds                                  0.004267                       # Number of seconds simulated
sim_ticks                                  4267436000                       # Number of ticks simulated
system.cpu.Branches                            238611                       # Number of branches fetched
system.cpu.committedInsts                     1000033                       # Number of instructions committed
system.cpu.committedOps                       1891410                       # Number of ops (including micro ops) committed
system.cpu.dtb.rdAccesses                      245397                       # TLB accesses on read requests
system.cpu.dtb.rdMisses                            52                       # TLB misses on read requests
system.cpu.dtb.wrAccesses                      142936                       # TLB accesses on write requests
system.cpu.dtb.wrMisses                            64                       # TLB misses on write requests
system.cpu.idle_fraction                            0                       # Percentage of idle cycles
system.cpu.itb.rdAccesses                           0                       # TLB accesses on read requests
system.cpu.itb.rdMisses                             0                       # TLB misses on read requests
system.cpu.itb.wrAccesses                     1298739                       # TLB accesses on write requests
system.cpu.itb.wrMisses                           112                       # TLB misses on write requests
system.cpu.not_idle_fraction                        1                       # Percentage of non-idle cycles
system.cpu.numCycles                          4267425                       # number of cpu cycles simulated
system.cpu.numWorkItemsCompleted                    0                       # number of work items this cpu completed
system.cpu.numWorkItemsStarted                      0                       # number of work items this cpu started
system.cpu.num_busy_cycles                    4267425                       # Number of busy cycles
system.cpu.num_cc_register_reads              1102429                       # number of times the CC registers were read
system.cpu.num_cc_register_writes              577236                       # number of times the CC registers were written
system.cpu.num_conditional_control_insts       175136                       # number of instructions that are conditional controls
system.cpu.num_fp_alu_accesses                   7373                       # Number of float alu accesses
system.cpu.num_fp_insts                          7373                       # number of float instructions
system.cpu.num_fp_register_reads                11135                       # number of times the floating registers were read
system.cpu.num_fp_register_writes                5646                       # number of times the floating registers were written
system.cpu.num_func_calls                       47413                       # number of times a function call or return occured
system.cpu.num_idle_cycles                          0                       # Number of idle cycles
system.cpu.num_int_alu_accesses               1884136                       # Number of integer alu accesses
system.cpu.num_int_insts                      1884136                       # number of integer instructions
system.cpu.num_int_register_reads             3636587                       # number of times the integer registers were read
system.cpu.num_int_register_writes            1503064                       # number of times the integer registers were written
system.cpu.num_load_insts                      245357                       # Number of load instructions
system.cpu.num_mem_refs                        388279                       # number of memory refs
system.cpu.num_store_insts                     142922                       # Number of store instructions
system.cpu.num_vec_alu_accesses                     0                       # Number of vector alu accesses
system.cpu.num_vec_insts                            0                       # number of vector instructions
system.cpu.num_vec_register_reads                   0                       # number of times the vector registers were read
system.cpu.num_vec_register_writes                  0                       # number of times the vector registers were written
system.cpu.op_class::No_OpClass                  2746      0.15%      0.15% # Class of executed instruction
system.cpu.op_class::IntAlu                   1495081     79.04%     79.19% # Class of executed instruction
system.cpu.op_class::IntMult                       33      0.00%     79.19% # Class of executed instruction
system.cpu.op_class::IntDiv                        98      0.01%     79.20% # Class of executed instruction
system.cpu.op_class::FloatAdd                     128      0.01%     79.20% # Class of executed instruction
system.cpu.op_class::FloatCmp                       0      0.00%     79.20% # Class of executed instruction
system.cpu.op_class::FloatCvt                       0      0.00%     79.20% # Class of executed instruction
system.cpu.op_class::FloatMult                      0      0.00%     79.20% # Class of executed instruction
system.cpu.op_class::FloatMultAcc                   0      0.00%     79.20% # Class of executed instruction
system.cpu.op_class::FloatDiv                       0      0.00%     79.20% # Class of executed instruction
system.cpu.op_class::FloatMisc                      0      0.00%     79.20% # Class of executed instruction
system.cpu.op_class::FloatSqrt                      0      0.00%     79.20% # Class of executed instruction
system.cpu.op_class::SimdAdd                        0      0.00%     79.20% # Class of executed instruction
system.cpu.op_class::SimdAddAcc                     0      0.00%     79.20% # Class of executed instruction
system.cpu.op_class::SimdAlu                     1860      0.10%     79.30% # Class of executed instruction
system.cpu.op_class::SimdCmp                      270      0.01%     79.32% # Class of executed instruction
system.cpu.op_class::SimdCvt                     1290      0.07%     79.38% # Class of executed instruction
system.cpu.op_class::SimdMisc                    1614      0.09%     79.47% # Class of executed instruction
system.cpu.op_class::SimdMult                       0      0.00%     79.47% # Class of executed instruction
system.cpu.op_class::SimdMultAcc                    0      0.00%     79.47% # Class of executed instruction
system.cpu.op_class::SimdShift                      0      0.00%     79.47% # Class of executed instruction
system.cpu.op_class::SimdShiftAcc                   0      0.00%     79.47% # Class of executed instruction
system.cpu.op_class::SimdDiv                        0      0.00%     79.47% # Class of executed instruction
system.cpu.op_class::SimdSqrt                       0      0.00%     79.47% # Class of executed instruction
system.cpu.op_class::SimdFloatAdd                   1      0.00%     79.47% # Class of executed instruction
system.cpu.op_class::SimdFloatAlu                   0      0.00%     79.47% # Class of executed instruction
system.cpu.op_class::SimdFloatCmp                   0      0.00%     79.47% # Class of executed instruction
system.cpu.op_class::SimdFloatCvt                  34      0.00%     79.47% # Class of executed instruction
system.cpu.op_class::SimdFloatDiv                   1      0.00%     79.47% # Class of executed instruction
system.cpu.op_class::SimdFloatMisc                  0      0.00%     79.47% # Class of executed instruction
system.cpu.op_class::SimdFloatMult                  1      0.00%     79.47% # Class of executed instruction
system.cpu.op_class::SimdFloatMultAcc               0      0.00%     79.47% # Class of executed instruction
system.cpu.op_class::SimdFloatSqrt                  0      0.00%     79.47% # Class of executed instruction
system.cpu.op_class::SimdReduceAdd                  0      0.00%     79.47% # Class of executed instruction
system.cpu.op_class::SimdReduceAlu                  0      0.00%     79.47% # Class of executed instruction
system.cpu.op_class::SimdReduceCmp                  0      0.00%     79.47% # Class of executed instruction
system.cpu.op_class::SimdFloatReduceAdd             0      0.00%     79.47% # Class of executed instruction
system.cpu.op_class::SimdFloatReduceCmp             0      0.00%     79.47% # Class of executed instruction
system.cpu.op_class::SimdAes                        0      0.00%     79.47% # Class of executed instruction
system.cpu.op_class::SimdAesMix                     0      0.00%     79.47% # Class of executed instruction
system.cpu.op_class::SimdSha1Hash                   0      0.00%     79.47% # Class of executed instruction
system.cpu.op_class::SimdSha1Hash2                  0      0.00%     79.47% # Class of executed instruction
system.cpu.op_class::SimdSha256Hash                 0      0.00%     79.47% # Class of executed instruction
system.cpu.op_class::SimdSha256Hash2                0      0.00%     79.47% # Class of executed instruction
system.cpu.op_class::SimdShaSigma2                  0      0.00%     79.47% # Class of executed instruction
system.cpu.op_class::SimdShaSigma3                  0      0.00%     79.47% # Class of executed instruction
system.cpu.op_class::SimdPredAlu                    0      0.00%     79.47% # Class of executed instruction
system.cpu.op_class::MemRead                   243786     12.89%     92.36% # Class of executed instruction
system.cpu.op_class::MemWrite                  142442      7.53%     99.89% # Class of executed instruction
system.cpu.op_class::FloatMemRead                1571      0.08%     99.97% # Class of executed instruction
system.cpu.op_class::FloatMemWrite                480      0.03%    100.00% # Class of executed instruction
system.cpu.op_class::IprAccess                      0      0.00%    100.00% # Class of executed instruction
system.cpu.op_class::InstPrefetch                   0      0.00%    100.00% # Class of executed instruction
system.cpu.op_class::total                    1891436                       # Class of executed instruction
system.cpu.workload.numSyscalls                    18                       # Number of system calls
system.dynamic_cache.flushTicks                     0                       # Ticks taken to flush
system.dynamic_cache.numFlushes                     0                       # Number of Flushes Taken
system.cache_small.blocked_cycles::no_mshrs            0                       # number of cycles access was blocked
system.cache_small.blocked_cycles::no_targets            0                       # number of cycles access was blocked
system.cache_small.blocked::no_mshrs                0                       # number of cycles access was blocked
system.cache_small.blocked::no_targets              0                       # number of cycles access was blocked
system.cache_small.avg_blocked_cycles::no_mshrs          nan                       # average number of cycles each access was blocked
system.cache_small.avg_blocked_cycles::no_targets          nan                       # average number of cycles each access was blocked
system.cache_small.replacements                     0                       # number of replacements
system.cache_small.power_state.pwrStateResidencyTicks::UNDEFINED   4267436000                       # Cumulative time (in ticks) in various power states
system.cache_small.tags.tagsinuse                   0                       # Cycle average of tags in use
system.cache_small.tags.total_refs                  0                       # Total number of references to valid blocks.
system.cache_small.tags.sampled_refs                0                       # Sample count of references to valid blocks.
system.cache_small.tags.avg_refs                  nan                       # Average number of references to valid blocks.
system.cache_small.tags.warmup_cycle                0                       # Cycle when the warmup percentage was hit.
system.cache_small.tags.tag_accesses                0                       # Number of tag accesses
system.cache_small.tags.data_accesses               0                       # Number of data accesses
system.cache_small.tags.power_state.pwrStateResidencyTicks::UNDEFINED   4267436000                       # Cumulative time (in ticks) in various power states
system.icache.demand_hits::.cpu.inst          1288946                       # number of demand (read+write) hits
system.icache.demand_hits::total              1288946                       # number of demand (read+write) hits
system.icache.overall_hits::.cpu.inst         1288946                       # number of overall hits
system.icache.overall_hits::total             1288946                       # number of overall hits
system.icache.demand_misses::.cpu.inst           9793                       # number of demand (read+write) misses
system.icache.demand_misses::total               9793                       # number of demand (read+write) misses
system.icache.overall_misses::.cpu.inst          9793                       # number of overall misses
system.icache.overall_misses::total              9793                       # number of overall misses
system.icache.demand_miss_latency::.cpu.inst    513680000                       # number of demand (read+write) miss cycles
system.icache.demand_miss_latency::total    513680000                       # number of demand (read+write) miss cycles
system.icache.overall_miss_latency::.cpu.inst    513680000                       # number of overall miss cycles
system.icache.overall_miss_latency::total    513680000                       # number of overall miss cycles
system.icache.demand_accesses::.cpu.inst      1298739                       # number of demand (read+write) accesses
system.icache.demand_accesses::total          1298739                       # number of demand (read+write) accesses
system.icache.overall_accesses::.cpu.inst      1298739                       # number of overall (read+write) accesses
system.icache.overall_accesses::total         1298739                       # number of overall (read+write) accesses
system.icache.demand_miss_rate::.cpu.inst     0.007540                       # miss rate for demand accesses
system.icache.demand_miss_rate::total        0.007540                       # miss rate for demand accesses
system.icache.overall_miss_rate::.cpu.inst     0.007540                       # miss rate for overall accesses
system.icache.overall_miss_rate::total       0.007540                       # miss rate for overall accesses
system.icache.demand_avg_miss_latency::.cpu.inst 52453.793526                       # average overall miss latency
system.icache.demand_avg_miss_latency::total 52453.793526                       # average overall miss latency
system.icache.overall_avg_miss_latency::.cpu.inst 52453.793526                       # average overall miss latency
system.icache.overall_avg_miss_latency::total 52453.793526                       # average overall miss latency
system.icache.blocked_cycles::no_mshrs              0                       # number of cycles access was blocked
system.icache.blocked_cycles::no_targets            0                       # number of cycles access was blocked
system.icache.blocked::no_mshrs                     0                       # number of cycles access was blocked
system.icache.blocked::no_targets                   0                       # number of cycles access was blocked
system.icache.avg_blocked_cycles::no_mshrs          nan                       # average number of cycles each access was blocked
system.icache.avg_blocked_cycles::no_targets          nan                       # average number of cycles each access was blocked
system.icache.demand_mshr_misses::.cpu.inst         9793                       # number of demand (read+write) MSHR misses
system.icache.demand_mshr_misses::total          9793                       # number of demand (read+write) MSHR misses
system.icache.overall_mshr_misses::.cpu.inst         9793                       # number of overall MSHR misses
system.icache.overall_mshr_misses::total         9793                       # number of overall MSHR misses
system.icache.demand_mshr_miss_latency::.cpu.inst    494094000                       # number of demand (read+write) MSHR miss cycles
system.icache.demand_mshr_miss_latency::total    494094000                       # number of demand (read+write) MSHR miss cycles
system.icache.overall_mshr_miss_latency::.cpu.inst    494094000                       # number of overall MSHR miss cycles
system.icache.overall_mshr_miss_latency::total    494094000                       # number of overall MSHR miss cycles
system.icache.demand_mshr_miss_rate::.cpu.inst     0.007540                       # mshr miss rate for demand accesses
system.icache.demand_mshr_miss_rate::total     0.007540                       # mshr miss rate for demand accesses
system.icache.overall_mshr_miss_rate::.cpu.inst     0.007540                       # mshr miss rate for overall accesses
system.icache.overall_mshr_miss_rate::total     0.007540                       # mshr miss rate for overall accesses
system.icache.demand_avg_mshr_miss_latency::.cpu.inst 50453.793526                       # average overall mshr miss latency
system.icache.demand_avg_mshr_miss_latency::total 50453.793526                       # average overall mshr miss latency
system.icache.overall_avg_mshr_miss_latency::.cpu.inst 50453.793526                       # average overall mshr miss latency
system.icache.overall_avg_mshr_miss_latency::total 50453.793526                       # average overall mshr miss latency
system.icache.replacements                       9538                       # number of replacements
system.icache.ReadReq_hits::.cpu.inst         1288946                       # number of ReadReq hits
system.icache.ReadReq_hits::total             1288946                       # number of ReadReq hits
system.icache.ReadReq_misses::.cpu.inst          9793                       # number of ReadReq misses
system.icache.ReadReq_misses::total              9793                       # number of ReadReq misses
system.icache.ReadReq_miss_latency::.cpu.inst    513680000                       # number of ReadReq miss cycles
system.icache.ReadReq_miss_latency::total    513680000                       # number of ReadReq miss cycles
system.icache.ReadReq_accesses::.cpu.inst      1298739                       # number of ReadReq accesses(hits+misses)
system.icache.ReadReq_accesses::total         1298739                       # number of ReadReq accesses(hits+misses)
system.icache.ReadReq_miss_rate::.cpu.inst     0.007540                       # miss rate for ReadReq accesses
system.icache.ReadReq_miss_rate::total       0.007540                       # miss rate for ReadReq accesses
system.icache.ReadReq_avg_miss_latency::.cpu.inst 52453.793526                       # average ReadReq miss latency
system.icache.ReadReq_avg_miss_latency::total 52453.793526                       # average ReadReq miss latency
system.icache.ReadReq_mshr_misses::.cpu.inst         9793                       # number of ReadReq MSHR misses
system.icache.ReadReq_mshr_misses::total         9793                       # number of ReadReq MSHR misses
system.icache.ReadReq_mshr_miss_latency::.cpu.inst    494094000                       # number of ReadReq MSHR miss cycles
system.icache.ReadReq_mshr_miss_latency::total    494094000                       # number of ReadReq MSHR miss cycles
system.icache.ReadReq_mshr_miss_rate::.cpu.inst     0.007540                       # mshr miss rate for ReadReq accesses
system.icache.ReadReq_mshr_miss_rate::total     0.007540                       # mshr miss rate for ReadReq accesses
system.icache.ReadReq_avg_mshr_miss_latency::.cpu.inst 50453.793526                       # average ReadReq mshr miss latency
system.icache.ReadReq_avg_mshr_miss_latency::total 50453.793526                       # average ReadReq mshr miss latency
system.icache.power_state.pwrStateResidencyTicks::UNDEFINED   4267436000                       # Cumulative time (in ticks) in various power states
system.icache.tags.tagsinuse               248.549749                       # Cycle average of tags in use
system.icache.tags.total_refs                 1101115                       # Total number of references to valid blocks.
system.icache.tags.sampled_refs                  9538                       # Sample count of references to valid blocks.
system.icache.tags.avg_refs                115.445062                       # Average number of references to valid blocks.
system.icache.tags.warmup_cycle                 80000                       # Cycle when the warmup percentage was hit.
system.icache.tags.occ_blocks::.cpu.inst   248.549749                       # Average occupied blocks per requestor
system.icache.tags.occ_percent::.cpu.inst     0.970897                       # Average percentage of cache occupancy
system.icache.tags.occ_percent::total        0.970897                       # Average percentage of cache occupancy
system.icache.tags.occ_task_id_blocks::1024          255                       # Occupied blocks per task id
system.icache.tags.age_task_id_blocks_1024::1           13                       # Occupied blocks per task id
system.icache.tags.age_task_id_blocks_1024::2          181                       # Occupied blocks per task id
system.icache.tags.age_task_id_blocks_1024::3           61                       # Occupied blocks per task id
system.icache.tags.occ_task_id_percent::1024     0.996094                       # Percentage of cache occupancy per task id
system.icache.tags.tag_accesses               1308532                       # Number of tag accesses
system.icache.tags.data_accesses              1308532                       # Number of data accesses
system.icache.tags.power_state.pwrStateResidencyTicks::UNDEFINED   4267436000                       # Cumulative time (in ticks) in various power states
system.membus.trans_dist::ReadReq               10797                       # Transaction distribution
system.membus.trans_dist::ReadResp              10797                       # Transaction distribution
system.membus.trans_dist::WritebackDirty         3469                       # Transaction distribution
system.membus.pkt_count_system.dynamic_cache.mem_side::system.mem_ctrl.port        25063                       # Packet count per connected master and slave (bytes)
system.membus.pkt_count_system.dynamic_cache.mem_side::total        25063                       # Packet count per connected master and slave (bytes)
system.membus.pkt_count::total                  25063                       # Packet count per connected master and slave (bytes)
system.membus.pkt_size_system.dynamic_cache.mem_side::system.mem_ctrl.port       913024                       # Cumulative packet size per connected master and slave (bytes)
system.membus.pkt_size_system.dynamic_cache.mem_side::total       913024                       # Cumulative packet size per connected master and slave (bytes)
system.membus.pkt_size::total                  913024                       # Cumulative packet size per connected master and slave (bytes)
system.membus.reqLayer2.occupancy            28142000                       # Layer occupancy (ticks)
system.membus.reqLayer2.utilization               0.7                       # Layer utilization (%)
system.membus.respLayer0.occupancy           57471750                       # Layer occupancy (ticks)
system.membus.respLayer0.utilization              1.3                       # Layer utilization (%)
system.membus.power_state.pwrStateResidencyTicks::UNDEFINED   4267436000                       # Cumulative time (in ticks) in various power states
system.mem_ctrl.bytes_read::.cpu.inst          401344                       # Number of bytes read from this memory
system.mem_ctrl.bytes_read::.cpu.data          289664                       # Number of bytes read from this memory
system.mem_ctrl.bytes_read::total              691008                       # Number of bytes read from this memory
system.mem_ctrl.bytes_inst_read::.cpu.inst       401344                       # Number of instructions bytes read from this memory
system.mem_ctrl.bytes_inst_read::total         401344                       # Number of instructions bytes read from this memory
system.mem_ctrl.bytes_written::.writebacks       222016                       # Number of bytes written to this memory
system.mem_ctrl.bytes_written::total           222016                       # Number of bytes written to this memory
system.mem_ctrl.num_reads::.cpu.inst             6271                       # Number of read requests responded to by this memory
system.mem_ctrl.num_reads::.cpu.data             4526                       # Number of read requests responded to by this memory
system.mem_ctrl.num_reads::total                10797                       # Number of read requests responded to by this memory
system.mem_ctrl.num_writes::.writebacks          3469                       # Number of write requests responded to by this memory
system.mem_ctrl.num_writes::total                3469                       # Number of write requests responded to by this memory
system.mem_ctrl.bw_read::.cpu.inst           94048042                       # Total read bandwidth from this memory (bytes/s)
system.mem_ctrl.bw_read::.cpu.data           67877761                       # Total read bandwidth from this memory (bytes/s)
system.mem_ctrl.bw_read::total              161925803                       # Total read bandwidth from this memory (bytes/s)
system.mem_ctrl.bw_inst_read::.cpu.inst      94048042                       # Instruction read bandwidth from this memory (bytes/s)
system.mem_ctrl.bw_inst_read::total          94048042                       # Instruction read bandwidth from this memory (bytes/s)
system.mem_ctrl.bw_write::.writebacks        52025619                       # Write bandwidth from this memory (bytes/s)
system.mem_ctrl.bw_write::total              52025619                       # Write bandwidth from this memory (bytes/s)
system.mem_ctrl.bw_total::.writebacks        52025619                       # Total bandwidth to/from this memory (bytes/s)
system.mem_ctrl.bw_total::.cpu.inst          94048042                       # Total bandwidth to/from this memory (bytes/s)
system.mem_ctrl.bw_total::.cpu.data          67877761                       # Total bandwidth to/from this memory (bytes/s)
system.mem_ctrl.bw_total::total             213951422                       # Total bandwidth to/from this memory (bytes/s)
system.mem_ctrl.avgPriority_.writebacks::samples      2000.00                       # Average QoS priority value for accepted requests
system.mem_ctrl.avgPriority_.cpu.inst::samples      6271.00                       # Average QoS priority value for accepted requests
system.mem_ctrl.avgPriority_.cpu.data::samples      4052.00                       # Average QoS priority value for accepted requests
system.mem_ctrl.priorityMinLatency       0.000000018750                       # per QoS priority minimum request to response latency (s)
system.mem_ctrl.priorityMaxLatency       0.002239296750                       # per QoS priority maximum request to response latency (s)
system.mem_ctrl.numReadWriteTurnArounds           113                       # Number of turnarounds from READ to WRITE
system.mem_ctrl.numWriteReadTurnArounds           113                       # Number of turnarounds from WRITE to READ
system.mem_ctrl.numStayReadState                25160                       # Number of times bus staying in READ state
system.mem_ctrl.numStayWriteState                1859                       # Number of times bus staying in WRITE state
system.mem_ctrl.readReqs                        10797                       # Number of read requests accepted
system.mem_ctrl.writeReqs                        3469                       # Number of write requests accepted
system.mem_ctrl.readBursts                      10797                       # Number of DRAM read bursts, including those serviced by the write queue
system.mem_ctrl.writeBursts                      3469                       # Number of DRAM write bursts, including those merged in the write queue
system.mem_ctrl.servicedByWrQ                     474                       # Number of DRAM read bursts serviced by the write queue
system.mem_ctrl.mergedWrBursts                   1469                       # Number of DRAM write bursts merged with an existing one
system.mem_ctrl.neitherReadNorWriteReqs             0                       # Number of requests that are neither read nor write
system.mem_ctrl.perBankRdBursts::0               1199                       # Per bank write bursts
system.mem_ctrl.perBankRdBursts::1                609                       # Per bank write bursts
system.mem_ctrl.perBankRdBursts::2                240                       # Per bank write bursts
system.mem_ctrl.perBankRdBursts::3                503                       # Per bank write bursts
system.mem_ctrl.perBankRdBursts::4                927                       # Per bank write bursts
system.mem_ctrl.perBankRdBursts::5               1015                       # Per bank write bursts
system.mem_ctrl.perBankRdBursts::6                302                       # Per bank write bursts
system.mem_ctrl.perBankRdBursts::7                543                       # Per bank write bursts
system.mem_ctrl.perBankRdBursts::8               1227                       # Per bank write bursts
system.mem_ctrl.perBankRdBursts::9                588                       # Per bank write bursts
system.mem_ctrl.perBankRdBursts::10               212                       # Per bank write bursts
system.mem_ctrl.perBankRdBursts::11               238                       # Per bank write bursts
system.mem_ctrl.perBankRdBursts::12              1823                       # Per bank write bursts
system.mem_ctrl.perBankRdBursts::13               235                       # Per bank write bursts
system.mem_ctrl.perBankRdBursts::14               337                       # Per bank write bursts
system.mem_ctrl.perBankRdBursts::15               325                       # Per bank write bursts
system.mem_ctrl.perBankWrBursts::0                129                       # Per bank write bursts
system.mem_ctrl.perBankWrBursts::1                207                       # Per bank write bursts
system.mem_ctrl.perBankWrBursts::2                 91                       # Per bank write bursts
system.mem_ctrl.perBankWrBursts::3                235                       # Per bank write bursts
system.mem_ctrl.perBankWrBursts::4                398                       # Per bank write bursts
system.mem_ctrl.perBankWrBursts::5                 30                       # Per bank write bursts
system.mem_ctrl.perBankWrBursts::6                 30                       # Per bank write bursts
system.mem_ctrl.perBankWrBursts::7                 64                       # Per bank write bursts
system.mem_ctrl.perBankWrBursts::8                 52                       # Per bank write bursts
system.mem_ctrl.perBankWrBursts::9                  8                       # Per bank write bursts
system.mem_ctrl.perBankWrBursts::10                 5                       # Per bank write bursts
system.mem_ctrl.perBankWrBursts::11               294                       # Per bank write bursts
system.mem_ctrl.perBankWrBursts::12               286                       # Per bank write bursts
system.mem_ctrl.perBankWrBursts::13                 9                       # Per bank write bursts
system.mem_ctrl.perBankWrBursts::14                 2                       # Per bank write bursts
system.mem_ctrl.perBankWrBursts::15               132                       # Per bank write bursts
system.mem_ctrl.avgRdQLen                        1.00                       # Average read queue length when enqueuing
system.mem_ctrl.avgWrQLen                       24.96                       # Average write queue length when enqueuing
system.mem_ctrl.totQLat                      89909000                       # Total ticks spent queuing
system.mem_ctrl.totBusLat                    51615000                       # Total ticks spent in databus transfers
system.mem_ctrl.totMemAccLat                283465250                       # Total ticks spent from burst creation until serviced by the DRAM
system.mem_ctrl.avgQLat                       8709.58                       # Average queueing delay per DRAM burst
system.mem_ctrl.avgBusLat                     5000.00                       # Average bus latency per DRAM burst
system.mem_ctrl.avgMemAccLat                 27459.58                       # Average memory access latency per DRAM burst
system.mem_ctrl.numRdRetry                          0                       # Number of times read queue was full causing retry
system.mem_ctrl.numWrRetry                          0                       # Number of times write queue was full causing retry
system.mem_ctrl.readRowHits                      7308                       # Number of row buffer hits during reads
system.mem_ctrl.writeRowHits                     1645                       # Number of row buffer hits during writes
system.mem_ctrl.readRowHitRate                  70.79                       # Row buffer hit rate for reads
system.mem_ctrl.writeRowHitRate                 82.25                       # Row buffer hit rate for writes
system.mem_ctrl.readPktSize::0                      0                       # Read request sizes (log2)
system.mem_ctrl.readPktSize::1                      0                       # Read request sizes (log2)
system.mem_ctrl.readPktSize::2                      0                       # Read request sizes (log2)
system.mem_ctrl.readPktSize::3                      0                       # Read request sizes (log2)
system.mem_ctrl.readPktSize::4                      0                       # Read request sizes (log2)
system.mem_ctrl.readPktSize::5                      0                       # Read request sizes (log2)
system.mem_ctrl.readPktSize::6                  10797                       # Read request sizes (log2)
system.mem_ctrl.writePktSize::0                     0                       # Write request sizes (log2)
system.mem_ctrl.writePktSize::1                     0                       # Write request sizes (log2)
system.mem_ctrl.writePktSize::2                     0                       # Write request sizes (log2)
system.mem_ctrl.writePktSize::3                     0                       # Write request sizes (log2)
system.mem_ctrl.writePktSize::4                     0                       # Write request sizes (log2)
system.mem_ctrl.writePktSize::5                     0                       # Write request sizes (log2)
system.mem_ctrl.writePktSize::6                  3469                       # Write request sizes (log2)
system.mem_ctrl.rdQLenPdf::0                    10323                       # What read queue length does an incoming req see
system.mem_ctrl.rdQLenPdf::1                        0                       # What read queue length does an incoming req see
system.mem_ctrl.rdQLenPdf::2                        0                       # What read queue length does an incoming req see
system.mem_ctrl.rdQLenPdf::3                        0                       # What read queue length does an incoming req see
system.mem_ctrl.rdQLenPdf::4                        0                       # What read queue length does an incoming req see
system.mem_ctrl.rdQLenPdf::5                        0                       # What read queue length does an incoming req see
system.mem_ctrl.rdQLenPdf::6                        0                       # What read queue length does an incoming req see
system.mem_ctrl.rdQLenPdf::7                        0                       # What read queue length does an incoming req see
system.mem_ctrl.rdQLenPdf::8                        0                       # What read queue length does an incoming req see
system.mem_ctrl.rdQLenPdf::9                        0                       # What read queue length does an incoming req see
system.mem_ctrl.rdQLenPdf::10                       0                       # What read queue length does an incoming req see
system.mem_ctrl.rdQLenPdf::11                       0                       # What read queue length does an incoming req see
system.mem_ctrl.rdQLenPdf::12                       0                       # What read queue length does an incoming req see
system.mem_ctrl.rdQLenPdf::13                       0                       # What read queue length does an incoming req see
system.mem_ctrl.rdQLenPdf::14                       0                       # What read queue length does an incoming req see
system.mem_ctrl.rdQLenPdf::15                       0                       # What read queue length does an incoming req see
system.mem_ctrl.rdQLenPdf::16                       0                       # What read queue length does an incoming req see
system.mem_ctrl.rdQLenPdf::17                       0                       # What read queue length does an incoming req see
system.mem_ctrl.rdQLenPdf::18                       0                       # What read queue length does an incoming req see
system.mem_ctrl.rdQLenPdf::19                       0                       # What read queue length does an incoming req see
system.mem_ctrl.rdQLenPdf::20                       0                       # What read queue length does an incoming req see
system.mem_ctrl.rdQLenPdf::21                       0                       # What read queue length does an incoming req see
system.mem_ctrl.rdQLenPdf::22                       0                       # What read queue length does an incoming req see
system.mem_ctrl.rdQLenPdf::23                       0                       # What read queue length does an incoming req see
system.mem_ctrl.rdQLenPdf::24                       0                       # What read queue length does an incoming req see
system.mem_ctrl.rdQLenPdf::25                       0                       # What read queue length does an incoming req see
system.mem_ctrl.rdQLenPdf::26                       0                       # What read queue length does an incoming req see
system.mem_ctrl.rdQLenPdf::27                       0                       # What read queue length does an incoming req see
system.mem_ctrl.rdQLenPdf::28                       0                       # What read queue length does an incoming req see
system.mem_ctrl.rdQLenPdf::29                       0                       # What read queue length does an incoming req see
system.mem_ctrl.rdQLenPdf::30                       0                       # What read queue length does an incoming req see
system.mem_ctrl.rdQLenPdf::31                       0                       # What read queue length does an incoming req see
system.mem_ctrl.wrQLenPdf::0                        1                       # What write queue length does an incoming req see
system.mem_ctrl.wrQLenPdf::1                        1                       # What write queue length does an incoming req see
system.mem_ctrl.wrQLenPdf::2                        1                       # What write queue length does an incoming req see
system.mem_ctrl.wrQLenPdf::3                        1                       # What write queue length does an incoming req see
system.mem_ctrl.wrQLenPdf::4                        1                       # What write queue length does an incoming req see
system.mem_ctrl.wrQLenPdf::5                        1                       # What write queue length does an incoming req see
system.mem_ctrl.wrQLenPdf::6                        1                       # What write queue length does an incoming req see
system.mem_ctrl.wrQLenPdf::7                        1                       # What write queue length does an incoming req see
system.mem_ctrl.wrQLenPdf::8                        1                       # What write queue length does an incoming req see
system.mem_ctrl.wrQLenPdf::9                        1                       # What write queue length does an incoming req see
system.mem_ctrl.wrQLenPdf::10                       1                       # What write queue length does an incoming req see
system.mem_ctrl.wrQLenPdf::11                       1                       # What write queue length does an incoming req see
system.mem_ctrl.wrQLenPdf::12                       1                       # What write queue length does an incoming req see
system.mem_ctrl.wrQLenPdf::13                       1                       # What write queue length does an incoming req see
system.mem_ctrl.wrQLenPdf::14                       1                       # What write queue length does an incoming req see
system.mem_ctrl.wrQLenPdf::15                      80                       # What write queue length does an incoming req see
system.mem_ctrl.wrQLenPdf::16                      83                       # What write queue length does an incoming req see
system.mem_ctrl.wrQLenPdf::17                     111                       # What write queue length does an incoming req see
system.mem_ctrl.wrQLenPdf::18                     115                       # What write queue length does an incoming req see
system.mem_ctrl.wrQLenPdf::19                     114                       # What write queue length does an incoming req see
system.mem_ctrl.wrQLenPdf::20                     114                       # What write queue length does an incoming req see
system.mem_ctrl.wrQLenPdf::21                     114                       # What write queue length does an incoming req see
system.mem_ctrl.wrQLenPdf::22                     115                       # What write queue length does an incoming req see
system.mem_ctrl.wrQLenPdf::23                     114                       # What write queue length does an incoming req see
system.mem_ctrl.wrQLenPdf::24                     116                       # What write queue length does an incoming req see
system.mem_ctrl.wrQLenPdf::25                     114                       # What write queue length does an incoming req see
system.mem_ctrl.wrQLenPdf::26                     114                       # What write queue length does an incoming req see
system.mem_ctrl.wrQLenPdf::27                     116                       # What write queue length does an incoming req see
system.mem_ctrl.wrQLenPdf::28                     113                       # What write queue length does an incoming req see
system.mem_ctrl.wrQLenPdf::29                     113                       # What write queue length does an incoming req see
system.mem_ctrl.wrQLenPdf::30                     113                       # What write queue length does an incoming req see
system.mem_ctrl.wrQLenPdf::31                     113                       # What write queue length does an incoming req see
system.mem_ctrl.wrQLenPdf::32                     113                       # What write queue length does an incoming req see
system.mem_ctrl.wrQLenPdf::33                       0                       # What write queue length does an incoming req see
system.mem_ctrl.wrQLenPdf::34                       0                       # What write queue length does an incoming req see
system.mem_ctrl.wrQLenPdf::35                       0                       # What write queue length does an incoming req see
system.mem_ctrl.wrQLenPdf::36                       0                       # What write queue length does an incoming req see
system.mem_ctrl.wrQLenPdf::37                       0                       # What write queue length does an incoming req see
system.mem_ctrl.wrQLenPdf::38                       0                       # What write queue length does an incoming req see
system.mem_ctrl.wrQLenPdf::39                       0                       # What write queue length does an incoming req see
system.mem_ctrl.wrQLenPdf::40                       0                       # What write queue length does an incoming req see
system.mem_ctrl.wrQLenPdf::41                       0                       # What write queue length does an incoming req see
system.mem_ctrl.wrQLenPdf::42                       0                       # What write queue length does an incoming req see
system.mem_ctrl.wrQLenPdf::43                       0                       # What write queue length does an incoming req see
system.mem_ctrl.wrQLenPdf::44                       0                       # What write queue length does an incoming req see
system.mem_ctrl.wrQLenPdf::45                       0                       # What write queue length does an incoming req see
system.mem_ctrl.wrQLenPdf::46                       0                       # What write queue length does an incoming req see
system.mem_ctrl.wrQLenPdf::47                       0                       # What write queue length does an incoming req see
system.mem_ctrl.wrQLenPdf::48                       0                       # What write queue length does an incoming req see
system.mem_ctrl.wrQLenPdf::49                       0                       # What write queue length does an incoming req see
system.mem_ctrl.wrQLenPdf::50                       0                       # What write queue length does an incoming req see
system.mem_ctrl.wrQLenPdf::51                       0                       # What write queue length does an incoming req see
system.mem_ctrl.wrQLenPdf::52                       0                       # What write queue length does an incoming req see
system.mem_ctrl.wrQLenPdf::53                       0                       # What write queue length does an incoming req see
system.mem_ctrl.wrQLenPdf::54                       0                       # What write queue length does an incoming req see
system.mem_ctrl.wrQLenPdf::55                       0                       # What write queue length does an incoming req see
system.mem_ctrl.wrQLenPdf::56                       0                       # What write queue length does an incoming req see
system.mem_ctrl.wrQLenPdf::57                       0                       # What write queue length does an incoming req see
system.mem_ctrl.wrQLenPdf::58                       0                       # What write queue length does an incoming req see
system.mem_ctrl.wrQLenPdf::59                       0                       # What write queue length does an incoming req see
system.mem_ctrl.wrQLenPdf::60                       0                       # What write queue length does an incoming req see
system.mem_ctrl.wrQLenPdf::61                       0                       # What write queue length does an incoming req see
system.mem_ctrl.wrQLenPdf::62                       0                       # What write queue length does an incoming req see
system.mem_ctrl.wrQLenPdf::63                       0                       # What write queue length does an incoming req see
system.mem_ctrl.bytesPerActivate::samples         3341                       # Bytes accessed per row activation
system.mem_ctrl.bytesPerActivate::mean     235.503143                       # Bytes accessed per row activation
system.mem_ctrl.bytesPerActivate::gmean    151.377696                       # Bytes accessed per row activation
system.mem_ctrl.bytesPerActivate::stdev    257.769497                       # Bytes accessed per row activation
system.mem_ctrl.bytesPerActivate::0-127          1351     40.44%     40.44% # Bytes accessed per row activation
system.mem_ctrl.bytesPerActivate::128-255          924     27.66%     68.09% # Bytes accessed per row activation
system.mem_ctrl.bytesPerActivate::256-383          424     12.69%     80.78% # Bytes accessed per row activation
system.mem_ctrl.bytesPerActivate::384-511          206      6.17%     86.95% # Bytes accessed per row activation
system.mem_ctrl.bytesPerActivate::512-639           92      2.75%     89.70% # Bytes accessed per row activation
system.mem_ctrl.bytesPerActivate::640-767           81      2.42%     92.13% # Bytes accessed per row activation
system.mem_ctrl.bytesPerActivate::768-895           47      1.41%     93.53% # Bytes accessed per row activation
system.mem_ctrl.bytesPerActivate::896-1023           50      1.50%     95.03% # Bytes accessed per row activation
system.mem_ctrl.bytesPerActivate::1024-1151          166      4.97%    100.00% # Bytes accessed per row activation
system.mem_ctrl.bytesPerActivate::total          3341                       # Bytes accessed per row activation
system.mem_ctrl.rdPerTurnAround::samples          113                       # Reads before turning the bus around for writes
system.mem_ctrl.rdPerTurnAround::mean       91.265487                       # Reads before turning the bus around for writes
system.mem_ctrl.rdPerTurnAround::stdev     166.121998                       # Reads before turning the bus around for writes
system.mem_ctrl.rdPerTurnAround::0-63              71     62.83%     62.83% # Reads before turning the bus around for writes
system.mem_ctrl.rdPerTurnAround::64-127            21     18.58%     81.42% # Reads before turning the bus around for writes
system.mem_ctrl.rdPerTurnAround::128-191            7      6.19%     87.61% # Reads before turning the bus around for writes
system.mem_ctrl.rdPerTurnAround::192-255            8      7.08%     94.69% # Reads before turning the bus around for writes
system.mem_ctrl.rdPerTurnAround::256-319            2      1.77%     96.46% # Reads before turning the bus around for writes
system.mem_ctrl.rdPerTurnAround::512-575            1      0.88%     97.35% # Reads before turning the bus around for writes
system.mem_ctrl.rdPerTurnAround::576-639            1      0.88%     98.23% # Reads before turning the bus around for writes
system.mem_ctrl.rdPerTurnAround::832-895            1      0.88%     99.12% # Reads before turning the bus around for writes
system.mem_ctrl.rdPerTurnAround::1280-1343            1      0.88%    100.00% # Reads before turning the bus around for writes
system.mem_ctrl.rdPerTurnAround::total            113                       # Reads before turning the bus around for writes
system.mem_ctrl.wrPerTurnAround::samples          113                       # Writes before turning the bus around for reads
system.mem_ctrl.wrPerTurnAround::mean       17.451327                       # Writes before turning the bus around for reads
system.mem_ctrl.wrPerTurnAround::gmean      17.424808                       # Writes before turning the bus around for reads
system.mem_ctrl.wrPerTurnAround::stdev       0.954231                       # Writes before turning the bus around for reads
system.mem_ctrl.wrPerTurnAround::16                32     28.32%     28.32% # Writes before turning the bus around for reads
system.mem_ctrl.wrPerTurnAround::17                 2      1.77%     30.09% # Writes before turning the bus around for reads
system.mem_ctrl.wrPerTurnAround::18                76     67.26%     97.35% # Writes before turning the bus around for reads
system.mem_ctrl.wrPerTurnAround::19                 2      1.77%     99.12% # Writes before turning the bus around for reads
system.mem_ctrl.wrPerTurnAround::20                 1      0.88%    100.00% # Writes before turning the bus around for reads
system.mem_ctrl.wrPerTurnAround::total            113                       # Writes before turning the bus around for reads
system.mem_ctrl.bytesReadDRAM                  660672                       # Total number of bytes read from DRAM
system.mem_ctrl.bytesReadWrQ                    30336                       # Total number of bytes read from write queue
system.mem_ctrl.bytesWritten                   126208                       # Total number of bytes written to DRAM
system.mem_ctrl.bytesReadSys                   691008                       # Total read bytes from the system interface side
system.mem_ctrl.bytesWrittenSys                222016                       # Total written bytes from the system interface side
system.mem_ctrl.avgRdBW                        154.82                       # Average DRAM read bandwidth in MiByte/s
system.mem_ctrl.avgWrBW                         29.57                       # Average achieved write bandwidth in MiByte/s
system.mem_ctrl.avgRdBWSys                     161.93                       # Average system read bandwidth in MiByte/s
system.mem_ctrl.avgWrBWSys                      52.03                       # Average system write bandwidth in MiByte/s
system.mem_ctrl.peakBW                       12800.00                       # Theoretical peak bandwidth in MiByte/s
system.mem_ctrl.busUtil                          1.44                       # Data bus utilization in percentage
system.mem_ctrl.busUtilRead                      1.21                       # Data bus utilization in percentage for reads
system.mem_ctrl.busUtilWrite                     0.23                       # Data bus utilization in percentage for writes
system.mem_ctrl.totGap                     4266976000                       # Total gap between requests
system.mem_ctrl.avgGap                      299101.08                       # Average gap between requests
system.mem_ctrl.masterReadBytes::.cpu.inst       401344                       # Per-master bytes read from memory
system.mem_ctrl.masterReadBytes::.cpu.data       259328                       # Per-master bytes read from memory
system.mem_ctrl.masterWriteBytes::.writebacks       126208                       # Per-master bytes write to memory
system.mem_ctrl.masterReadRate::.cpu.inst 94048041.962433636189                       # Per-master bytes read from memory rate (Bytes/sec)
system.mem_ctrl.masterReadRate::.cpu.data 60769042.582009427249                       # Per-master bytes read from memory rate (Bytes/sec)
system.mem_ctrl.masterWriteRate::.writebacks 29574667.317799255252                       # Per-master bytes write to memory rate (Bytes/sec)
system.mem_ctrl.masterReadAccesses::.cpu.inst         6271                       # Per-master read serviced memory accesses
system.mem_ctrl.masterReadAccesses::.cpu.data         4526                       # Per-master read serviced memory accesses
system.mem_ctrl.masterWriteAccesses::.writebacks         3469                       # Per-master write serviced memory accesses
system.mem_ctrl.masterReadTotalLat::.cpu.inst    170096750                       # Per-master read total memory access latency
system.mem_ctrl.masterReadTotalLat::.cpu.data    113368500                       # Per-master read total memory access latency
system.mem_ctrl.masterWriteTotalLat::.writebacks 105044588750                       # Per-master write total memory access latency
system.mem_ctrl.masterReadAvgLat::.cpu.inst     27124.34                       # Per-master read average memory access latency
system.mem_ctrl.masterReadAvgLat::.cpu.data     25048.28                       # Per-master read average memory access latency
system.mem_ctrl.masterWriteAvgLat::.writebacks  30280942.27                       # Per-master write average memory access latency
system.mem_ctrl.pageHitRate                     72.65                       # Row buffer hit rate, read and write combined
system.mem_ctrl.rank1.actEnergy              10045980                       # Energy for activate commands per rank (pJ)
system.mem_ctrl.rank1.preEnergy               5335770                       # Energy for precharge commands per rank (pJ)
system.mem_ctrl.rank1.readEnergy             35592900                       # Energy for read commands per rank (pJ)
system.mem_ctrl.rank1.writeEnergy             4113360                       # Energy for write commands per rank (pJ)
system.mem_ctrl.rank1.refreshEnergy      336822720.000000                       # Energy for refresh commands per rank (pJ)
system.mem_ctrl.rank1.actBackEnergy        1271726430                       # Energy for active background per rank (pJ)
system.mem_ctrl.rank1.preBackEnergy         567768000                       # Energy for precharge background per rank (pJ)
system.mem_ctrl.rank1.actPowerDownEnergy            0                       # Energy for active power-down per rank (pJ)
system.mem_ctrl.rank1.prePowerDownEnergy            0                       # Energy for precharge power-down per rank (pJ)
system.mem_ctrl.rank1.selfRefreshEnergy             0                       # Energy for self refresh per rank (pJ)
system.mem_ctrl.rank1.totalEnergy          2231405160                       # Total energy per rank (pJ)
system.mem_ctrl.rank1.averagePower         522.891301                       # Core power per rank (mW)
system.mem_ctrl.rank1.totalIdleTime                 0                       # Total Idle time Per DRAM Rank
system.mem_ctrl.rank1.memoryStateTime::IDLE   1463836250                       # Time in different power states
system.mem_ctrl.rank1.memoryStateTime::REF    142480000                       # Time in different power states
system.mem_ctrl.rank1.memoryStateTime::SREF            0                       # Time in different power states
system.mem_ctrl.rank1.memoryStateTime::PRE_PDN            0                       # Time in different power states
system.mem_ctrl.rank1.memoryStateTime::ACT   2661119750                       # Time in different power states
system.mem_ctrl.rank1.memoryStateTime::ACT_PDN            0                       # Time in different power states
system.mem_ctrl.rank0.actEnergy              13815900                       # Energy for activate commands per rank (pJ)
system.mem_ctrl.rank0.preEnergy               7343325                       # Energy for precharge commands per rank (pJ)
system.mem_ctrl.rank0.readEnergy             38113320                       # Energy for read commands per rank (pJ)
system.mem_ctrl.rank0.writeEnergy             6180480                       # Energy for write commands per rank (pJ)
system.mem_ctrl.rank0.refreshEnergy      336822720.000000                       # Energy for refresh commands per rank (pJ)
system.mem_ctrl.rank0.actBackEnergy        1274689860                       # Energy for active background per rank (pJ)
system.mem_ctrl.rank0.preBackEnergy         565272480                       # Energy for precharge background per rank (pJ)
system.mem_ctrl.rank0.actPowerDownEnergy            0                       # Energy for active power-down per rank (pJ)
system.mem_ctrl.rank0.prePowerDownEnergy            0                       # Energy for precharge power-down per rank (pJ)
system.mem_ctrl.rank0.selfRefreshEnergy             0                       # Energy for self refresh per rank (pJ)
system.mem_ctrl.rank0.totalEnergy          2242238085                       # Total energy per rank (pJ)
system.mem_ctrl.rank0.averagePower         525.429810                       # Core power per rank (mW)
system.mem_ctrl.rank0.totalIdleTime                 0                       # Total Idle time Per DRAM Rank
system.mem_ctrl.rank0.memoryStateTime::IDLE   1455700500                       # Time in different power states
system.mem_ctrl.rank0.memoryStateTime::REF    142480000                       # Time in different power states
system.mem_ctrl.rank0.memoryStateTime::SREF            0                       # Time in different power states
system.mem_ctrl.rank0.memoryStateTime::PRE_PDN            0                       # Time in different power states
system.mem_ctrl.rank0.memoryStateTime::ACT   2669255500                       # Time in different power states
system.mem_ctrl.rank0.memoryStateTime::ACT_PDN            0                       # Time in different power states
system.mem_ctrl.power_state.pwrStateResidencyTicks::UNDEFINED   4267436000                       # Cumulative time (in ticks) in various power states
system.cache_medium.blocked_cycles::no_mshrs            0                       # number of cycles access was blocked
system.cache_medium.blocked_cycles::no_targets            0                       # number of cycles access was blocked
system.cache_medium.blocked::no_mshrs               0                       # number of cycles access was blocked
system.cache_medium.blocked::no_targets             0                       # number of cycles access was blocked
system.cache_medium.avg_blocked_cycles::no_mshrs          nan                       # average number of cycles each access was blocked
system.cache_medium.avg_blocked_cycles::no_targets          nan                       # average number of cycles each access was blocked
system.cache_medium.replacements                    0                       # number of replacements
system.cache_medium.power_state.pwrStateResidencyTicks::UNDEFINED   4267436000                       # Cumulative time (in ticks) in various power states
system.cache_medium.tags.tagsinuse                  0                       # Cycle average of tags in use
system.cache_medium.tags.total_refs                 0                       # Total number of references to valid blocks.
system.cache_medium.tags.sampled_refs               0                       # Sample count of references to valid blocks.
system.cache_medium.tags.avg_refs                 nan                       # Average number of references to valid blocks.
system.cache_medium.tags.warmup_cycle               0                       # Cycle when the warmup percentage was hit.
system.cache_medium.tags.tag_accesses               0                       # Number of tag accesses
system.cache_medium.tags.data_accesses              0                       # Number of data accesses
system.cache_medium.tags.power_state.pwrStateResidencyTicks::UNDEFINED   4267436000                       # Cumulative time (in ticks) in various power states
system.clk_domain.clock                          1000                       # Clock period in ticks
system.clk_domain.voltage_domain.voltage            1                       # Voltage in Volts
system.dcache.demand_hits::.cpu.data           375692                       # number of demand (read+write) hits
system.dcache.demand_hits::total               375692                       # number of demand (read+write) hits
system.dcache.overall_hits::.cpu.data          378494                       # number of overall hits
system.dcache.overall_hits::total              378494                       # number of overall hits
system.dcache.demand_misses::.cpu.data           9563                       # number of demand (read+write) misses
system.dcache.demand_misses::total               9563                       # number of demand (read+write) misses
system.dcache.overall_misses::.cpu.data          9813                       # number of overall misses
system.dcache.overall_misses::total              9813                       # number of overall misses
system.dcache.demand_miss_latency::.cpu.data    392040000                       # number of demand (read+write) miss cycles
system.dcache.demand_miss_latency::total    392040000                       # number of demand (read+write) miss cycles
system.dcache.overall_miss_latency::.cpu.data    397584000                       # number of overall miss cycles
system.dcache.overall_miss_latency::total    397584000                       # number of overall miss cycles
system.dcache.demand_accesses::.cpu.data       385255                       # number of demand (read+write) accesses
system.dcache.demand_accesses::total           385255                       # number of demand (read+write) accesses
system.dcache.overall_accesses::.cpu.data       388307                       # number of overall (read+write) accesses
system.dcache.overall_accesses::total          388307                       # number of overall (read+write) accesses
system.dcache.demand_miss_rate::.cpu.data     0.024823                       # miss rate for demand accesses
system.dcache.demand_miss_rate::total        0.024823                       # miss rate for demand accesses
system.dcache.overall_miss_rate::.cpu.data     0.025271                       # miss rate for overall accesses
system.dcache.overall_miss_rate::total       0.025271                       # miss rate for overall accesses
system.dcache.demand_avg_miss_latency::.cpu.data 40995.503503                       # average overall miss latency
system.dcache.demand_avg_miss_latency::total 40995.503503                       # average overall miss latency
system.dcache.overall_avg_miss_latency::.cpu.data 40516.050138                       # average overall miss latency
system.dcache.overall_avg_miss_latency::total 40516.050138                       # average overall miss latency
system.dcache.blocked_cycles::no_mshrs              0                       # number of cycles access was blocked
system.dcache.blocked_cycles::no_targets            0                       # number of cycles access was blocked
system.dcache.blocked::no_mshrs                     0                       # number of cycles access was blocked
system.dcache.blocked::no_targets                   0                       # number of cycles access was blocked
system.dcache.avg_blocked_cycles::no_mshrs          nan                       # average number of cycles each access was blocked
system.dcache.avg_blocked_cycles::no_targets          nan                       # average number of cycles each access was blocked
system.dcache.writebacks::.writebacks            4714                       # number of writebacks
system.dcache.writebacks::total                  4714                       # number of writebacks
system.dcache.demand_mshr_misses::.cpu.data         9563                       # number of demand (read+write) MSHR misses
system.dcache.demand_mshr_misses::total          9563                       # number of demand (read+write) MSHR misses
system.dcache.overall_mshr_misses::.cpu.data         9813                       # number of overall MSHR misses
system.dcache.overall_mshr_misses::total         9813                       # number of overall MSHR misses
system.dcache.demand_mshr_miss_latency::.cpu.data    372916000                       # number of demand (read+write) MSHR miss cycles
system.dcache.demand_mshr_miss_latency::total    372916000                       # number of demand (read+write) MSHR miss cycles
system.dcache.overall_mshr_miss_latency::.cpu.data    377960000                       # number of overall MSHR miss cycles
system.dcache.overall_mshr_miss_latency::total    377960000                       # number of overall MSHR miss cycles
system.dcache.demand_mshr_miss_rate::.cpu.data     0.024823                       # mshr miss rate for demand accesses
system.dcache.demand_mshr_miss_rate::total     0.024823                       # mshr miss rate for demand accesses
system.dcache.overall_mshr_miss_rate::.cpu.data     0.025271                       # mshr miss rate for overall accesses
system.dcache.overall_mshr_miss_rate::total     0.025271                       # mshr miss rate for overall accesses
system.dcache.demand_avg_mshr_miss_latency::.cpu.data 38995.712642                       # average overall mshr miss latency
system.dcache.demand_avg_mshr_miss_latency::total 38995.712642                       # average overall mshr miss latency
system.dcache.overall_avg_mshr_miss_latency::.cpu.data 38516.253949                       # average overall mshr miss latency
system.dcache.overall_avg_mshr_miss_latency::total 38516.253949                       # average overall mshr miss latency
system.dcache.replacements                       9556                       # number of replacements
system.dcache.ReadReq_hits::.cpu.data          235389                       # number of ReadReq hits
system.dcache.ReadReq_hits::total              235389                       # number of ReadReq hits
system.dcache.ReadReq_misses::.cpu.data          6952                       # number of ReadReq misses
system.dcache.ReadReq_misses::total              6952                       # number of ReadReq misses
system.dcache.ReadReq_miss_latency::.cpu.data    295669000                       # number of ReadReq miss cycles
system.dcache.ReadReq_miss_latency::total    295669000                       # number of ReadReq miss cycles
system.dcache.ReadReq_accesses::.cpu.data       242341                       # number of ReadReq accesses(hits+misses)
system.dcache.ReadReq_accesses::total          242341                       # number of ReadReq accesses(hits+misses)
system.dcache.ReadReq_miss_rate::.cpu.data     0.028687                       # miss rate for ReadReq accesses
system.dcache.ReadReq_miss_rate::total       0.028687                       # miss rate for ReadReq accesses
system.dcache.ReadReq_avg_miss_latency::.cpu.data 42530.063291                       # average ReadReq miss latency
system.dcache.ReadReq_avg_miss_latency::total 42530.063291                       # average ReadReq miss latency
system.dcache.ReadReq_mshr_misses::.cpu.data         6952                       # number of ReadReq MSHR misses
system.dcache.ReadReq_mshr_misses::total         6952                       # number of ReadReq MSHR misses
system.dcache.ReadReq_mshr_miss_latency::.cpu.data    281767000                       # number of ReadReq MSHR miss cycles
system.dcache.ReadReq_mshr_miss_latency::total    281767000                       # number of ReadReq MSHR miss cycles
system.dcache.ReadReq_mshr_miss_rate::.cpu.data     0.028687                       # mshr miss rate for ReadReq accesses
system.dcache.ReadReq_mshr_miss_rate::total     0.028687                       # mshr miss rate for ReadReq accesses
system.dcache.ReadReq_avg_mshr_miss_latency::.cpu.data 40530.350978                       # average ReadReq mshr miss latency
system.dcache.ReadReq_avg_mshr_miss_latency::total 40530.350978                       # average ReadReq mshr miss latency
system.dcache.WriteReq_hits::.cpu.data         140303                       # number of WriteReq hits
system.dcache.WriteReq_hits::total             140303                       # number of WriteReq hits
system.dcache.WriteReq_misses::.cpu.data         2611                       # number of WriteReq misses
system.dcache.WriteReq_misses::total             2611                       # number of WriteReq misses
system.dcache.WriteReq_miss_latency::.cpu.data     96371000                       # number of WriteReq miss cycles
system.dcache.WriteReq_miss_latency::total     96371000                       # number of WriteReq miss cycles
system.dcache.WriteReq_accesses::.cpu.data       142914                       # number of WriteReq accesses(hits+misses)
system.dcache.WriteReq_accesses::total         142914                       # number of WriteReq accesses(hits+misses)
system.dcache.WriteReq_miss_rate::.cpu.data     0.018270                       # miss rate for WriteReq accesses
system.dcache.WriteReq_miss_rate::total      0.018270                       # miss rate for WriteReq accesses
system.dcache.WriteReq_avg_miss_latency::.cpu.data 36909.613175                       # average WriteReq miss latency
system.dcache.WriteReq_avg_miss_latency::total 36909.613175                       # average WriteReq miss latency
system.dcache.WriteReq_mshr_misses::.cpu.data         2611                       # number of WriteReq MSHR misses
system.dcache.WriteReq_mshr_misses::total         2611                       # number of WriteReq MSHR misses
system.dcache.WriteReq_mshr_miss_latency::.cpu.data     91149000                       # number of WriteReq MSHR miss cycles
system.dcache.WriteReq_mshr_miss_latency::total     91149000                       # number of WriteReq MSHR miss cycles
system.dcache.WriteReq_mshr_miss_rate::.cpu.data     0.018270                       # mshr miss rate for WriteReq accesses
system.dcache.WriteReq_mshr_miss_rate::total     0.018270                       # mshr miss rate for WriteReq accesses
system.dcache.WriteReq_avg_mshr_miss_latency::.cpu.data 34909.613175                       # average WriteReq mshr miss latency
system.dcache.WriteReq_avg_mshr_miss_latency::total 34909.613175                       # average WriteReq mshr miss latency
system.dcache.SoftPFReq_hits::.cpu.data          2802                       # number of SoftPFReq hits
system.dcache.SoftPFReq_hits::total              2802                       # number of SoftPFReq hits
system.dcache.SoftPFReq_misses::.cpu.data          250                       # number of SoftPFReq misses
system.dcache.SoftPFReq_misses::total             250                       # number of SoftPFReq misses
system.dcache.SoftPFReq_miss_latency::.cpu.data      5544000                       # number of SoftPFReq miss cycles
system.dcache.SoftPFReq_miss_latency::total      5544000                       # number of SoftPFReq miss cycles
system.dcache.SoftPFReq_accesses::.cpu.data         3052                       # number of SoftPFReq accesses(hits+misses)
system.dcache.SoftPFReq_accesses::total          3052                       # number of SoftPFReq accesses(hits+misses)
system.dcache.SoftPFReq_miss_rate::.cpu.data     0.081913                       # miss rate for SoftPFReq accesses
system.dcache.SoftPFReq_miss_rate::total     0.081913                       # miss rate for SoftPFReq accesses
system.dcache.SoftPFReq_avg_miss_latency::.cpu.data        22176                       # average SoftPFReq miss latency
system.dcache.SoftPFReq_avg_miss_latency::total        22176                       # average SoftPFReq miss latency
system.dcache.SoftPFReq_mshr_misses::.cpu.data          250                       # number of SoftPFReq MSHR misses
system.dcache.SoftPFReq_mshr_misses::total          250                       # number of SoftPFReq MSHR misses
system.dcache.SoftPFReq_mshr_miss_latency::.cpu.data      5044000                       # number of SoftPFReq MSHR miss cycles
system.dcache.SoftPFReq_mshr_miss_latency::total      5044000                       # number of SoftPFReq MSHR miss cycles
system.dcache.SoftPFReq_mshr_miss_rate::.cpu.data     0.081913                       # mshr miss rate for SoftPFReq accesses
system.dcache.SoftPFReq_mshr_miss_rate::total     0.081913                       # mshr miss rate for SoftPFReq accesses
system.dcache.SoftPFReq_avg_mshr_miss_latency::.cpu.data        20176                       # average SoftPFReq mshr miss latency
system.dcache.SoftPFReq_avg_mshr_miss_latency::total        20176                       # average SoftPFReq mshr miss latency
system.dcache.power_state.pwrStateResidencyTicks::UNDEFINED   4267436000                       # Cumulative time (in ticks) in various power states
system.dcache.tags.tagsinuse               237.712786                       # Cycle average of tags in use
system.dcache.tags.total_refs                  381224                       # Total number of references to valid blocks.
system.dcache.tags.sampled_refs                  9556                       # Sample count of references to valid blocks.
system.dcache.tags.avg_refs                 39.893679                       # Average number of references to valid blocks.
system.dcache.tags.warmup_cycle                167000                       # Cycle when the warmup percentage was hit.
system.dcache.tags.occ_blocks::.cpu.data   237.712786                       # Average occupied blocks per requestor
system.dcache.tags.occ_percent::.cpu.data     0.928566                       # Average percentage of cache occupancy
system.dcache.tags.occ_percent::total        0.928566                       # Average percentage of cache occupancy
system.dcache.tags.occ_task_id_blocks::1024          256                       # Occupied blocks per task id
system.dcache.tags.age_task_id_blocks_1024::0           37                       # Occupied blocks per task id
system.dcache.tags.age_task_id_blocks_1024::1           42                       # Occupied blocks per task id
system.dcache.tags.age_task_id_blocks_1024::2          177                       # Occupied blocks per task id
system.dcache.tags.occ_task_id_percent::1024            1                       # Percentage of cache occupancy per task id
system.dcache.tags.tag_accesses                398119                       # Number of tag accesses
system.dcache.tags.data_accesses               398119                       # Number of data accesses
system.dcache.tags.power_state.pwrStateResidencyTicks::UNDEFINED   4267436000                       # Cumulative time (in ticks) in various power states
system.cache_large.blocked_cycles::no_mshrs            0                       # number of cycles access was blocked
system.cache_large.blocked_cycles::no_targets            0                       # number of cycles access was blocked
system.cache_large.blocked::no_mshrs                0                       # number of cycles access was blocked
system.cache_large.blocked::no_targets              0                       # number of cycles access was blocked
system.cache_large.avg_blocked_cycles::no_mshrs          nan                       # average number of cycles each access was blocked
system.cache_large.avg_blocked_cycles::no_targets          nan                       # average number of cycles each access was blocked
system.cache_large.replacements                     0                       # number of replacements
system.cache_large.power_state.pwrStateResidencyTicks::UNDEFINED   4267436000                       # Cumulative time (in ticks) in various power states
system.cache_large.tags.tagsinuse                   0                       # Cycle average of tags in use
system.cache_large.tags.total_refs                  0                       # Total number of references to valid blocks.
system.cache_large.tags.sampled_refs                0                       # Sample count of references to valid blocks.
system.cache_large.tags.avg_refs                  nan                       # Average number of references to valid blocks.
system.cache_large.tags.warmup_cycle                0                       # Cycle when the warmup percentage was hit.
system.cache_large.tags.tag_accesses                0                       # Number of tag accesses
system.cache_large.tags.data_accesses               0                       # Number of data accesses
system.cache_large.tags.power_state.pwrStateResidencyTicks::UNDEFINED   4267436000                       # Cumulative time (in ticks) in various power states
[...]
system.dcache.tags.age_task_id_blocks_1024::2          165                       # Occupied blocks per task id
system.dcache.tags.age_task_id_blocks_1024::3           16                       # Occupied blocks per task id
system.dcache.tags.occ_task_id_percent::1024            1                       # Percentage of cache occupancy per task id
system.dcache.tags.tag_accesses               2047467                       # Number of tag accesses
system.dcache.tags.data_accesses              2047467                       # Number of data accesses
system.dcache.tags.power_state.pwrStateResidencyTicks::UNDEFINED  24257131000                       # Cumulative time (in ticks) in various power states
system.cache_large.blocked_cycles::no_mshrs            0                       # number of cycles access was blocked
system.cache_large.blocked_cycles::no_targets            0                       # number of cycles access was blocked
system.cache_large.blocked::no_mshrs                0                       # number of cycles access was blocked
system.cache_large.blocked::no_targets              0                       # number of cycles access was blocked
system.cache_large.avg_blocked_cycles::no_mshrs          nan                       # average number of cycles each access was blocked
system.cache_large.avg_blocked_cycles::no_targets          nan                       # average number of cycles each access was blocked
system.cache_large.replacements                     0                       # number of replacements
system.cache_large.power_state.pwrStateResidencyTicks::UNDEFINED  24257131000                       # Cumulative time (in ticks) in various power states
system.cache_large.tags.tagsinuse                   0                       # Cycle average of tags in use
system.cache_large.tags.total_refs                  0                       # Total number of references to valid blocks.
system.cache_large.tags.sampled_refs                0                       # Sample count of references to valid blocks.
system.cache_large.tags.avg_refs                  nan                       # Average number of references to valid blocks.
system.cache_large.tags.warmup_cycle                0                       # Cycle when the warmup percentage was hit.
system.cache_large.tags.tag_accesses                0                       # Number of tag accesses
system.cache_large.tags.data_accesses               0                       # Number of data accesses
system.cache_large.tags.power_state.pwrStateResidencyTicks::UNDEFINED  24257131000                       # Cumulative time (in ticks) in various power states
system.l2cache.demand_hits::.cpu.inst           62949                       # number of demand (read+write) hits
system.l2cache.demand_hits::.cpu.data           36117                       # number of demand (read+write) hits
system.l2cache.demand_hits::total               99066                       # number of demand (read+write) hits
system.l2cache.overall_hits::.cpu.inst          62949                       # number of overall hits
system.l2cache.overall_hits::.cpu.data          36117                       # number of overall hits
system.l2cache.overall_hits::total              99066                       # number of overall hits
system.l2cache.demand_misses::.cpu.inst         48245                       # number of demand (read+write) misses
system.l2cache.demand_misses::.cpu.data         27852                       # number of demand (read+write) misses
system.l2cache.demand_misses::total             76097                       # number of demand (read+write) misses
system.l2cache.overall_misses::.cpu.inst        48245                       # number of overall misses
system.l2cache.overall_misses::.cpu.data        27852                       # number of overall misses
system.l2cache.overall_misses::total            76097                       # number of overall misses
system.l2cache.demand_miss_latency::.cpu.inst   3338139000                       # number of demand (read+write) miss cycles
system.l2cache.demand_miss_latency::.cpu.data   1848645000                       # number of demand (read+write) miss cycles
system.l2cache.demand_miss_latency::total   5186784000                       # number of demand (read+write) miss cycles
system.l2cache.overall_miss_latency::.cpu.inst   3338139000                       # number of overall miss cycles
system.l2cache.overall_miss_latency::.cpu.data   1848645000                       # number of overall miss cycles
system.l2cache.overall_miss_latency::total   5186784000                       # number of overall miss cycles
system.l2cache.demand_accesses::.cpu.inst       111194                       # number of demand (read+write) accesses
system.l2cache.demand_accesses::.cpu.data        63969                       # number of demand (read+write) accesses
system.l2cache.demand_accesses::total          175163                       # number of demand (read+write) accesses
system.l2cache.overall_accesses::.cpu.inst       111194                       # number of overall (read+write) accesses
system.l2cache.overall_accesses::.cpu.data        63969                       # number of overall (read+write) accesses
system.l2cache.overall_accesses::total         175163                       # number of overall (read+write) accesses
system.l2cache.demand_miss_rate::.cpu.inst     0.433881                       # miss rate for demand accesses
system.l2cache.demand_miss_rate::.cpu.data     0.435398                       # miss rate for demand accesses
system.l2cache.demand_miss_rate::total       0.434435                       # miss rate for demand accesses
system.l2cache.overall_miss_rate::.cpu.inst     0.433881                       # miss rate for overall accesses
system.l2cache.overall_miss_rate::.cpu.data     0.435398                       # miss rate for overall accesses
system.l2cache.overall_miss_rate::total      0.434435                       # miss rate for overall accesses
system.l2cache.demand_avg_miss_latency::.cpu.inst 69191.398072                       # average overall miss latency
system.l2cache.demand_avg_miss_latency::.cpu.data 66373.869022                       # average overall miss latency
system.l2cache.demand_avg_miss_latency::total 68160.164001                       # average overall miss latency
system.l2cache.overall_avg_miss_latency::.cpu.inst 69191.398072                       # average overall miss latency
system.l2cache.overall_avg_miss_latency::.cpu.data 66373.869022                       # average overall miss latency
system.l2cache.overall_avg_miss_latency::total 68160.164001                       # average overall miss latency
system.l2cache.blocked_cycles::no_mshrs             0                       # number of cycles access was blocked
system.l2cache.blocked_cycles::no_targets            0                       # number of cycles access was blocked
system.l2cache.blocked::no_mshrs                    0                       # number of cycles access was blocked
system.l2cache.blocked::no_targets                  0                       # number of cycles access was blocked
system.l2cache.avg_blocked_cycles::no_mshrs          nan                       # average number of cycles each access was blocked
system.l2cache.avg_blocked_cycles::no_targets          nan                       # average number of cycles each access was blocked
system.l2cache.writebacks::.writebacks          24804                       # number of writebacks
system.l2cache.writebacks::total                24804                       # number of writebacks
system.l2cache.demand_mshr_misses::.cpu.inst        48245                       # number of demand (read+write) MSHR misses
system.l2cache.demand_mshr_misses::.cpu.data        27852                       # number of demand (read+write) MSHR misses
system.l2cache.demand_mshr_misses::total        76097                       # number of demand (read+write) MSHR misses
system.l2cache.overall_mshr_misses::.cpu.inst        48245                       # number of overall MSHR misses
system.l2cache.overall_mshr_misses::.cpu.data        27852                       # number of overall MSHR misses
system.l2cache.overall_mshr_misses::total        76097                       # number of overall MSHR misses
system.l2cache.demand_mshr_miss_latency::.cpu.inst   3241649000                       # number of demand (read+write) MSHR miss cycles
system.l2cache.demand_mshr_miss_latency::.cpu.data   1792941000                       # number of demand (read+write) MSHR miss cycles
system.l2cache.demand_mshr_miss_latency::total   5034590000                       # number of demand (read+write) MSHR miss cycles
system.l2cache.overall_mshr_miss_latency::.cpu.inst   3241649000                       # number of overall MSHR miss cycles
system.l2cache.overall_mshr_miss_latency::.cpu.data   1792941000                       # number of overall MSHR miss cycles
system.l2cache.overall_mshr_miss_latency::total   5034590000                       # number of overall MSHR miss cycles
system.l2cache.demand_mshr_miss_rate::.cpu.inst     0.433881                       # mshr miss rate for demand accesses
system.l2cache.demand_mshr_miss_rate::.cpu.data     0.435398                       # mshr miss rate for demand accesses
system.l2cache.demand_mshr_miss_rate::total     0.434435                       # mshr miss rate for demand accesses
system.l2cache.overall_mshr_miss_rate::.cpu.inst     0.433881                       # mshr miss rate for overall accesses
system.l2cache.overall_mshr_miss_rate::.cpu.data     0.435398                       # mshr miss rate for overall accesses
system.l2cache.overall_mshr_miss_rate::total     0.434435                       # mshr miss rate for overall accesses
system.l2cache.demand_avg_mshr_miss_latency::.cpu.inst 67191.398072                       # average overall mshr miss latency
system.l2cache.demand_avg_mshr_miss_latency::.cpu.data 64373.869022                       # average overall mshr miss latency
system.l2cache.demand_avg_mshr_miss_latency::total 66160.164001                       # average overall mshr miss latency
system.l2cache.overall_avg_mshr_miss_latency::.cpu.inst 67191.398072                       # average overall mshr miss latency
system.l2cache.overall_avg_mshr_miss_latency::.cpu.data 64373.869022                       # average overall mshr miss latency
system.l2cache.overall_avg_mshr_miss_latency::total 66160.164001                       # average overall mshr miss latency
system.l2cache.replacements                     95223                       # number of replacements
system.l2cache.ReadReq_hits::.cpu.inst          62949                       # number of ReadReq hits
system.l2cache.ReadReq_hits::.cpu.data          36117                       # number of ReadReq hits
system.l2cache.ReadReq_hits::total              99066                       # number of ReadReq hits
system.l2cache.ReadReq_misses::.cpu.inst        48245                       # number of ReadReq misses
system.l2cache.ReadReq_misses::.cpu.data        27852                       # number of ReadReq misses
system.l2cache.ReadReq_misses::total            76097                       # number of ReadReq misses
system.l2cache.ReadReq_miss_latency::.cpu.inst   3338139000                       # number of ReadReq miss cycles
system.l2cache.ReadReq_miss_latency::.cpu.data   1848645000                       # number of ReadReq miss cycles
system.l2cache.ReadReq_miss_latency::total   5186784000                       # number of ReadReq miss cycles
system.l2cache.ReadReq_accesses::.cpu.inst       111194                       # number of ReadReq accesses(hits+misses)
system.l2cache.ReadReq_accesses::.cpu.data        63969                       # number of ReadReq accesses(hits+misses)
system.l2cache.ReadReq_accesses::total         175163                       # number of ReadReq accesses(hits+misses)
system.l2cache.ReadReq_miss_rate::.cpu.inst     0.433881                       # miss rate for ReadReq accesses
system.l2cache.ReadReq_miss_rate::.cpu.data     0.435398                       # miss rate for ReadReq accesses
system.l2cache.ReadReq_miss_rate::total      0.434435                       # miss rate for ReadReq accesses
system.l2cache.ReadReq_avg_miss_latency::.cpu.inst 69191.398072                       # average ReadReq miss latency
system.l2cache.ReadReq_avg_miss_latency::.cpu.data 66373.869022                       # average ReadReq miss latency
system.l2cache.ReadReq_avg_miss_latency::total 68160.164001                       # average ReadReq miss latency
system.l2cache.ReadReq_mshr_misses::.cpu.inst        48245                       # number of ReadReq MSHR misses
system.l2cache.ReadReq_mshr_misses::.cpu.data        27852                       # number of ReadReq MSHR misses
system.l2cache.ReadReq_mshr_misses::total        76097                       # number of ReadReq MSHR misses
system.l2cache.ReadReq_mshr_miss_latency::.cpu.inst   3241649000                       # number of ReadReq MSHR miss cycles
system.l2cache.ReadReq_mshr_miss_latency::.cpu.data   1792941000                       # number of ReadReq MSHR miss cycles
system.l2cache.ReadReq_mshr_miss_latency::total   5034590000                       # number of ReadReq MSHR miss cycles
system.l2cache.ReadReq_mshr_miss_rate::.cpu.inst     0.433881                       # mshr miss rate for ReadReq accesses
system.l2cache.ReadReq_mshr_miss_rate::.cpu.data     0.435398                       # mshr miss rate for ReadReq accesses
system.l2cache.ReadReq_mshr_miss_rate::total     0.434435                       # mshr miss rate for ReadReq accesses
system.l2cache.ReadReq_avg_mshr_miss_latency::.cpu.inst 67191.398072                       # average ReadReq mshr miss latency
system.l2cache.ReadReq_avg_mshr_miss_latency::.cpu.data 64373.869022                       # average ReadReq mshr miss latency
system.l2cache.ReadReq_avg_mshr_miss_latency::total 66160.164001                       # average ReadReq mshr miss latency
system.l2cache.WritebackDirty_hits::.writebacks        36830                       # number of WritebackDirty hits
system.l2cache.WritebackDirty_hits::total        36830                       # number of WritebackDirty hits
system.l2cache.WritebackDirty_accesses::.writebacks        36830                       # number of WritebackDirty accesses(hits+misses)
system.l2cache.WritebackDirty_accesses::total        36830                       # number of WritebackDirty accesses(hits+misses)
system.l2cache.power_state.pwrStateResidencyTicks::UNDEFINED  24257131000                       # Cumulative time (in ticks) in various power states
system.l2cache.tags.tagsinuse              509.006760                       # Cycle average of tags in use
system.l2cache.tags.total_refs                 211993                       # Total number of references to valid blocks.
system.l2cache.tags.sampled_refs                95735                       # Sample count of references to valid blocks.
system.l2cache.tags.avg_refs                 2.214373                       # Average number of references to valid blocks.
system.l2cache.tags.warmup_cycle                76000                       # Cycle when the warmup percentage was hit.
system.l2cache.tags.occ_blocks::.writebacks    94.868946                       # Average occupied blocks per requestor
system.l2cache.tags.occ_blocks::.cpu.inst   213.103803                       # Average occupied blocks per requestor
system.l2cache.tags.occ_blocks::.cpu.data   201.034010                       # Average occupied blocks per requestor
system.l2cache.tags.occ_percent::.writebacks     0.185291                       # Average percentage of cache occupancy
system.l2cache.tags.occ_percent::.cpu.inst     0.416218                       # Average percentage of cache occupancy
system.l2cache.tags.occ_percent::.cpu.data     0.392645                       # Average percentage of cache occupancy
system.l2cache.tags.occ_percent::total       0.994154                       # Average percentage of cache occupancy
system.l2cache.tags.occ_task_id_blocks::1024          512                       # Occupied blocks per task id
system.l2cache.tags.age_task_id_blocks_1024::0           25                       # Occupied blocks per task id
system.l2cache.tags.age_task_id_blocks_1024::1          116                       # Occupied blocks per task id
system.l2cache.tags.age_task_id_blocks_1024::2          232                       # Occupied blocks per task id
system.l2cache.tags.age_task_id_blocks_1024::3          139                       # Occupied blocks per task id
system.l2cache.tags.occ_task_id_percent::1024            1                       # Percentage of cache occupancy per task id
system.l2cache.tags.tag_accesses               307728                       # Number of tag accesses
system.l2cache.tags.data_accesses              307728                       # Number of data accesses
system.l2cache.tags.power_state.pwrStateResidencyTicks::UNDEFINED  24257131000                       # Cumulative time (in ticks) in various power states
system.l2bar.trans_dist::ReadReq               175163                       # Transaction distribution
system.l2bar.trans_dist::ReadResp              175163                       # Transaction distribution
system.l2bar.trans_dist::WritebackDirty         36830                       # Transaction distribution
system.l2bar.pkt_count_system.dcache.mem_side::system.l2cache.cpu_side       164768                       # Packet count per connected master and slave (bytes)
system.l2bar.pkt_count_system.icache.mem_side::system.l2cache.cpu_side       222388                       # Packet count per connected master and slave (bytes)
system.l2bar.pkt_count::total                  387156                       # Packet count per connected master and slave (bytes)
system.l2bar.pkt_size_system.dcache.mem_side::system.l2cache.cpu_side      6451136                       # Cumulative packet size per connected master and slave (bytes)
system.l2bar.pkt_size_system.icache.mem_side::system.l2cache.cpu_side      7116416                       # Cumulative packet size per connected master and slave (bytes)
system.l2bar.pkt_size::total                 13567552                       # Cumulative packet size per connected master and slave (bytes)
system.l2bar.respLayer1.occupancy           555970000                       # Layer occupancy (ticks)
system.l2bar.respLayer1.utilization               2.3                       # Layer utilization (%)
system.l2bar.reqLayer0.occupancy            359313000                       # Layer occupancy (ticks)
system.l2bar.reqLayer0.utilization                1.5                       # Layer utilization (%)
system.l2bar.respLayer0.occupancy           319845000                       # Layer occupancy (ticks)
system.l2bar.respLayer0.utilization               1.3                       # Layer utilization (%)
system.l2bar.power_state.pwrStateResidencyTicks::UNDEFINED  24257131000                       # Cumulative time (in ticks) in various power states
system.cpu.dtb.walker.power_state.pwrStateResidencyTicks::UNDEFINED  24257131000                       # Cumulative time (in ticks) in various power states
system.cpu.interrupts.clk_domain.clock          16000                       # Clock period in ticks
system.cpu.itb.walker.power_state.pwrStateResidencyTicks::UNDEFINED  24257131000                       # Cumulative time (in ticks) in various power states
system.cpu.power_state.numTransitions               1                       # Number of power state transitions
system.cpu.power_state.pwrStateResidencyTicks::ON  24257131000                       # Cumulative time (in ticks) in various power states

---------- End Simulation Statistics   ----------
