
---------- Begin Simulation Statistics ----------
final_tick                               408643230000                       # Number of ticks from beginning of simulation (restored from checkpoints and never reset)
host_inst_rate                                 211826                       # Simulator instruction rate (inst/s)
host_mem_usage                                 679960                       # Number of bytes of host memory used
host_op_rate                                   410440                       # Simulator op (including micro ops) rate (op/s)
host_seconds                                    23.60                       # Real time elapsed on the host
host_tick_rate                            17312158318                       # Simulator tick rate (ticks/s)
sim_freq                                 1000000000000                       # Frequency of simulated ticks
sim_insts                                     5000001                       # Number of instructions simulated
sim_ops                                       9688189                       # Number of ops (including micro ops) simulated
sim_seconds                                  0.408643                       # Number of seconds simulated
sim_ticks                                408643230000                       # Number of ticks simulated
system.cachebus.snoop_filter.hit_multi_requests            0                       # Number of requests hitting in the snoop filter with multiple (>1) holders of the requested data.
system.cachebus.snoop_filter.hit_multi_snoops            0                       # Number of snoops hitting in the snoop filter with multiple (>1) holders of the requested data.
system.cachebus.snoop_filter.hit_single_requests            0                       # Number of requests hitting in the snoop filter with a single holder of the requested data.
system.cachebus.snoop_filter.hit_single_snoops            0                       # Number of snoops hitting in the snoop filter with a single holder of the requested data.
system.cachebus.snoop_filter.tot_requests            0                       # Total number of requests made to the snoop filter.
system.cachebus.snoop_filter.tot_snoops             0                       # Total number of snoops made to the snoop filter.
system.cpu.Branches                           1191967                       # Number of branches fetched
system.cpu.committedInsts                     5000001                       # Number of instructions committed
system.cpu.committedOps                       9688189                       # Number of ops (including micro ops) committed
system.cpu.dtb.rdAccesses                     1059449                       # TLB accesses on read requests
system.cpu.dtb.rdMisses                            28                       # TLB misses on read requests
system.cpu.dtb.wrAccesses                      780771                       # TLB accesses on write requests
system.cpu.dtb.wrMisses                           661                       # TLB misses on write requests
system.cpu.idle_fraction                            0                       # Percentage of idle cycles
system.cpu.itb.rdAccesses                           0                       # TLB accesses on read requests
system.cpu.itb.rdMisses                             0                       # TLB misses on read requests
system.cpu.itb.wrAccesses                     6841125                       # TLB accesses on write requests
system.cpu.itb.wrMisses                            48                       # TLB misses on write requests
system.cpu.not_idle_fraction                        1                       # Percentage of non-idle cycles
system.cpu.numCycles                        408643230                       # number of cpu cycles simulated
system.cpu.numWorkItemsCompleted                    0                       # number of work items this cpu completed
system.cpu.numWorkItemsStarted                      0                       # number of work items this cpu started
system.cpu.num_busy_cycles                  408643230                       # Number of busy cycles
system.cpu.num_cc_register_reads              6215678                       # number of times the CC registers were read
system.cpu.num_cc_register_writes             2966404                       # number of times the CC registers were written
system.cpu.num_conditional_control_insts       924785                       # number of instructions that are conditional controls
system.cpu.num_fp_alu_accesses                  84640                       # Number of float alu accesses
system.cpu.num_fp_insts                         84640                       # number of float instructions
system.cpu.num_fp_register_reads               129218                       # number of times the floating registers were read
system.cpu.num_fp_register_writes               72602                       # number of times the floating registers were written
system.cpu.num_func_calls                      108142                       # number of times a function call or return occured
system.cpu.num_idle_cycles                          0                       # Number of idle cycles
system.cpu.num_int_alu_accesses               9597326                       # Number of integer alu accesses
system.cpu.num_int_insts                      9597326                       # number of integer instructions
system.cpu.num_int_register_reads            18926725                       # number of times the integer registers were read
system.cpu.num_int_register_writes            7790662                       # number of times the integer registers were written
system.cpu.num_load_insts                     1058945                       # Number of load instructions
system.cpu.num_mem_refs                       1839716                       # number of memory refs
system.cpu.num_store_insts                     780771                       # Number of store instructions
system.cpu.num_vec_alu_accesses                     0                       # Number of vector alu accesses
system.cpu.num_vec_insts                            0                       # number of vector instructions
system.cpu.num_vec_register_reads                   0                       # number of times the vector registers were read
system.cpu.num_vec_register_writes                  0                       # number of times the vector registers were written
system.cpu.op_class::No_OpClass                 35809      0.37%      0.37% # Class of executed instruction
system.cpu.op_class::IntAlu                   7633440     78.79%     79.16% # Class of executed instruction
system.cpu.op_class::IntMult                    55157      0.57%     79.73% # Class of executed instruction
system.cpu.op_class::IntDiv                     57230      0.59%     80.32% # Class of executed instruction
system.cpu.op_class::FloatAdd                    5400      0.06%     80.37% # Class of executed instruction
system.cpu.op_class::FloatCmp                       0      0.00%     80.37% # Class of executed instruction
system.cpu.op_class::FloatCvt                       0      0.00%     80.37% # Class of executed instruction
system.cpu.op_class::FloatMult                      0      0.00%     80.37% # Class of executed instruction
system.cpu.op_class::FloatMultAcc                   0      0.00%     80.37% # Class of executed instruction
system.cpu.op_class::FloatDiv                       0      0.00%     80.37% # Class of executed instruction
system.cpu.op_class::FloatMisc                      0      0.00%     80.37% # Class of executed instruction
system.cpu.op_class::FloatSqrt                      0      0.00%     80.37% # Class of executed instruction
system.cpu.op_class::SimdAdd                        0      0.00%     80.37% # Class of executed instruction
system.cpu.op_class::SimdAddAcc                     0      0.00%     80.37% # Class of executed instruction
system.cpu.op_class::SimdAlu                      140      0.00%     80.38% # Class of executed instruction
system.cpu.op_class::SimdCmp                       14      0.00%     80.38% # Class of executed instruction
system.cpu.op_class::SimdCvt                    11926      0.12%     80.50% # Class of executed instruction
system.cpu.op_class::SimdMisc                   49686      0.51%     81.01% # Class of executed instruction
system.cpu.op_class::SimdMult                       0      0.00%     81.01% # Class of executed instruction
system.cpu.op_class::SimdMultAcc                    0      0.00%     81.01% # Class of executed instruction
system.cpu.op_class::SimdShift                      0      0.00%     81.01% # Class of executed instruction
system.cpu.op_class::SimdShiftAcc                   0      0.00%     81.01% # Class of executed instruction
system.cpu.op_class::SimdDiv                        0      0.00%     81.01% # Class of executed instruction
system.cpu.op_class::SimdSqrt                       0      0.00%     81.01% # Class of executed instruction
system.cpu.op_class::SimdFloatAdd                   0      0.00%     81.01% # Class of executed instruction
system.cpu.op_class::SimdFloatAlu                   0      0.00%     81.01% # Class of executed instruction
system.cpu.op_class::SimdFloatCmp                   0      0.00%     81.01% # Class of executed instruction
system.cpu.op_class::SimdFloatCvt                   0      0.00%     81.01% # Class of executed instruction
system.cpu.op_class::SimdFloatDiv                   0      0.00%     81.01% # Class of executed instruction
system.cpu.op_class::SimdFloatMisc                  0      0.00%     81.01% # Class of executed instruction
system.cpu.op_class::SimdFloatMult                  0      0.00%     81.01% # Class of executed instruction
system.cpu.op_class::SimdFloatMultAcc               0      0.00%     81.01% # Class of executed instruction
system.cpu.op_class::SimdFloatSqrt                  0      0.00%     81.01% # Class of executed instruction
system.cpu.op_class::SimdReduceAdd                  0      0.00%     81.01% # Class of executed instruction
system.cpu.op_class::SimdReduceAlu                  0      0.00%     81.01% # Class of executed instruction
system.cpu.op_class::SimdReduceCmp                  0      0.00%     81.01% # Class of executed instruction
system.cpu.op_class::SimdFloatReduceAdd             0      0.00%     81.01% # Class of executed instruction
system.cpu.op_class::SimdFloatReduceCmp             0      0.00%     81.01% # Class of executed instruction
system.cpu.op_class::SimdAes                        0      0.00%     81.01% # Class of executed instruction
system.cpu.op_class::SimdAesMix                     0      0.00%     81.01% # Class of executed instruction
system.cpu.op_class::SimdSha1Hash                   0      0.00%     81.01% # Class of executed instruction
system.cpu.op_class::SimdSha1Hash2                  0      0.00%     81.01% # Class of executed instruction
system.cpu.op_class::SimdSha256Hash                 0      0.00%     81.01% # Class of executed instruction
system.cpu.op_class::SimdSha256Hash2                0      0.00%     81.01% # Class of executed instruction
system.cpu.op_class::SimdShaSigma2                  0      0.00%     81.01% # Class of executed instruction
system.cpu.op_class::SimdShaSigma3                  0      0.00%     81.01% # Class of executed instruction
system.cpu.op_class::SimdPredAlu                    0      0.00%     81.01% # Class of executed instruction
system.cpu.op_class::MemRead                  1047063     10.81%     91.82% # Class of executed instruction
system.cpu.op_class::MemWrite                  780619      8.06%     99.88% # Class of executed instruction
system.cpu.op_class::FloatMemRead               11882      0.12%    100.00% # Class of executed instruction
system.cpu.op_class::FloatMemWrite                152      0.00%    100.00% # Class of executed instruction
system.cpu.op_class::IprAccess                      0      0.00%    100.00% # Class of executed instruction
system.cpu.op_class::InstPrefetch                   0      0.00%    100.00% # Class of executed instruction
system.cpu.op_class::total                    9688518                       # Class of executed instruction
system.cpu.workload.numSyscalls                    26                       # Number of system calls
system.membus.snoop_filter.hit_multi_requests            0                       # Number of requests hitting in the snoop filter with multiple (>1) holders of the requested data.
system.membus.snoop_filter.hit_multi_snoops            0                       # Number of snoops hitting in the snoop filter with multiple (>1) holders of the requested data.
system.membus.snoop_filter.hit_single_requests            0                       # Number of requests hitting in the snoop filter with a single holder of the requested data.
system.membus.snoop_filter.hit_single_snoops            0                       # Number of snoops hitting in the snoop filter with a single holder of the requested data.
system.membus.snoop_filter.tot_requests          5548                       # Total number of requests made to the snoop filter.
system.membus.snoop_filter.tot_snoops               0                       # Total number of snoops made to the snoop filter.
system.membus.trans_dist::ReadReq             7584479                       # Transaction distribution
system.membus.trans_dist::ReadResp            7585240                       # Transaction distribution
system.membus.trans_dist::WriteReq             547754                       # Transaction distribution
system.membus.trans_dist::WriteResp            547754                       # Transaction distribution
system.membus.trans_dist::ReadExReq              4786                       # Transaction distribution
system.membus.trans_dist::ReadExResp             4786                       # Transaction distribution
system.membus.trans_dist::ReadSharedReq           762                       # Transaction distribution
system.membus.pkt_count_system.cpu.icache_port::system.mem_ctrl.port     13682249                       # Packet count per connected master and slave (bytes)
system.membus.pkt_count_system.cpu.icache_port::total     13682249                       # Packet count per connected master and slave (bytes)
system.membus.pkt_count_system.memobj.mem_side::system.mem_ctrl.port      2582216                       # Packet count per connected master and slave (bytes)
system.membus.pkt_count_system.memobj.mem_side::total      2582216                       # Packet count per connected master and slave (bytes)
system.membus.pkt_count_system.cache.mem_side::system.mem_ctrl.port        11096                       # Packet count per connected master and slave (bytes)
system.membus.pkt_count_system.cache.mem_side::total        11096                       # Packet count per connected master and slave (bytes)
system.membus.pkt_count::total               16275561                       # Packet count per connected master and slave (bytes)
system.membus.pkt_size_system.cpu.icache_port::system.mem_ctrl.port     54728992                       # Cumulative packet size per connected master and slave (bytes)
system.membus.pkt_size_system.cpu.icache_port::total     54728992                       # Cumulative packet size per connected master and slave (bytes)
system.membus.pkt_size_system.memobj.mem_side::system.mem_ctrl.port      8169778                       # Cumulative packet size per connected master and slave (bytes)
system.membus.pkt_size_system.memobj.mem_side::total      8169778                       # Cumulative packet size per connected master and slave (bytes)
system.membus.pkt_size_system.cache.mem_side::system.mem_ctrl.port       355072                       # Cumulative packet size per connected master and slave (bytes)
system.membus.pkt_size_system.cache.mem_side::total       355072                       # Cumulative packet size per connected master and slave (bytes)
system.membus.pkt_size::total                63253842                       # Cumulative packet size per connected master and slave (bytes)
system.membus.snoops                                0                       # Total snoops (count)
system.membus.snoopTraffic                          0                       # Total snoop traffic (bytes)
system.membus.snoop_fanout::samples           8137781                       # Request fanout histogram
system.membus.snoop_fanout::mean                    0                       # Request fanout histogram
system.membus.snoop_fanout::stdev                   0                       # Request fanout histogram
system.membus.snoop_fanout::underflows              0      0.00%      0.00% # Request fanout histogram
system.membus.snoop_fanout::0                 8137781    100.00%    100.00% # Request fanout histogram
system.membus.snoop_fanout::1                       0      0.00%    100.00% # Request fanout histogram
system.membus.snoop_fanout::overflows               0      0.00%    100.00% # Request fanout histogram
system.membus.snoop_fanout::min_value               0                       # Request fanout histogram
system.membus.snoop_fanout::max_value               0                       # Request fanout histogram
system.membus.snoop_fanout::total             8137781                       # Request fanout histogram
system.membus.reqLayer2.occupancy          8685535000                       # Layer occupancy (ticks)
system.membus.reqLayer2.utilization               2.1                       # Layer utilization (%)
system.membus.respLayer1.occupancy         2264945500                       # Layer occupancy (ticks)
system.membus.respLayer1.utilization              0.6                       # Layer utilization (%)
system.membus.respLayer0.occupancy        15535927250                       # Layer occupancy (ticks)
system.membus.respLayer0.utilization              3.8                       # Layer utilization (%)
system.membus.respLayer2.occupancy           30391500                       # Layer occupancy (ticks)
system.membus.respLayer2.utilization              0.0                       # Layer utilization (%)
system.membus.power_state.pwrStateResidencyTicks::UNDEFINED 408643230000                       # Cumulative time (in ticks) in various power states
system.mem_ctrl.bytes_read::.cpu.inst        54728992                       # Number of bytes read from this memory
system.mem_ctrl.bytes_read::.cpu.data         4859719                       # Number of bytes read from this memory
system.mem_ctrl.bytes_read::total            59588711                       # Number of bytes read from this memory
system.mem_ctrl.bytes_inst_read::.cpu.inst     54728992                       # Number of instructions bytes read from this memory
system.mem_ctrl.bytes_inst_read::total       54728992                       # Number of instructions bytes read from this memory
system.mem_ctrl.bytes_written::.cpu.data      3665131                       # Number of bytes written to this memory
system.mem_ctrl.bytes_written::total          3665131                       # Number of bytes written to this memory
system.mem_ctrl.num_reads::.cpu.inst          6841124                       # Number of read requests responded to by this memory
system.mem_ctrl.num_reads::.cpu.data           748902                       # Number of read requests responded to by this memory
system.mem_ctrl.num_reads::total              7590026                       # Number of read requests responded to by this memory
system.mem_ctrl.num_writes::.cpu.data          547754                       # Number of write requests responded to by this memory
system.mem_ctrl.num_writes::total              547754                       # Number of write requests responded to by this memory
system.mem_ctrl.bw_read::.cpu.inst          133928542                       # Total read bandwidth from this memory (bytes/s)
system.mem_ctrl.bw_read::.cpu.data           11892327                       # Total read bandwidth from this memory (bytes/s)
system.mem_ctrl.bw_read::total              145820869                       # Total read bandwidth from this memory (bytes/s)
system.mem_ctrl.bw_inst_read::.cpu.inst     133928542                       # Instruction read bandwidth from this memory (bytes/s)
system.mem_ctrl.bw_inst_read::total         133928542                       # Instruction read bandwidth from this memory (bytes/s)
system.mem_ctrl.bw_write::.cpu.data           8969024                       # Write bandwidth from this memory (bytes/s)
system.mem_ctrl.bw_write::total               8969024                       # Write bandwidth from this memory (bytes/s)
system.mem_ctrl.bw_total::.cpu.inst         133928542                       # Total bandwidth to/from this memory (bytes/s)
system.mem_ctrl.bw_total::.cpu.data          20861351                       # Total bandwidth to/from this memory (bytes/s)
system.mem_ctrl.bw_total::total             154789893                       # Total bandwidth to/from this memory (bytes/s)
system.mem_ctrl.avgPriority_.cpu.inst::samples   6841125.00                       # Average QoS priority value for accepted requests
system.mem_ctrl.avgPriority_.cpu.data::samples    729532.00                       # Average QoS priority value for accepted requests
system.mem_ctrl.priorityMinLatency       0.000000018750                       # per QoS priority minimum request to response latency (s)
system.mem_ctrl.priorityMaxLatency       0.001590109750                       # per QoS priority maximum request to response latency (s)
system.mem_ctrl.numReadWriteTurnArounds          3531                       # Number of turnarounds from READ to WRITE
system.mem_ctrl.numWriteReadTurnArounds          3531                       # Number of turnarounds from WRITE to READ
system.mem_ctrl.numStayReadState             15677371                       # Number of times bus staying in READ state
system.mem_ctrl.numStayWriteState               53013                       # Number of times bus staying in WRITE state
system.mem_ctrl.readReqs                      7590027                       # Number of read requests accepted
system.mem_ctrl.writeReqs                      547754                       # Number of write requests accepted
system.mem_ctrl.readBursts                    7590027                       # Number of DRAM read bursts, including those serviced by the write queue
system.mem_ctrl.writeBursts                    547754                       # Number of DRAM write bursts, including those merged in the write queue
system.mem_ctrl.servicedByWrQ                   75908                       # Number of DRAM read bursts serviced by the write queue
system.mem_ctrl.mergedWrBursts                 491216                       # Number of DRAM write bursts merged with an existing one
system.mem_ctrl.neitherReadNorWriteReqs             0                       # Number of requests that are neither read nor write
system.mem_ctrl.perBankRdBursts::0             572790                       # Per bank write bursts
system.mem_ctrl.perBankRdBursts::1               4798                       # Per bank write bursts
system.mem_ctrl.perBankRdBursts::2               1793                       # Per bank write bursts
system.mem_ctrl.perBankRdBursts::3            1366694                       # Per bank write bursts
system.mem_ctrl.perBankRdBursts::4            2283465                       # Per bank write bursts
system.mem_ctrl.perBankRdBursts::5              75220                       # Per bank write bursts
system.mem_ctrl.perBankRdBursts::6               4978                       # Per bank write bursts
system.mem_ctrl.perBankRdBursts::7               8819                       # Per bank write bursts
system.mem_ctrl.perBankRdBursts::8              74412                       # Per bank write bursts
system.mem_ctrl.perBankRdBursts::9            1447912                       # Per bank write bursts
system.mem_ctrl.perBankRdBursts::10           1139079                       # Per bank write bursts
system.mem_ctrl.perBankRdBursts::11             10709                       # Per bank write bursts
system.mem_ctrl.perBankRdBursts::12             18952                       # Per bank write bursts
system.mem_ctrl.perBankRdBursts::13            383242                       # Per bank write bursts
system.mem_ctrl.perBankRdBursts::14            120050                       # Per bank write bursts
system.mem_ctrl.perBankRdBursts::15              1206                       # Per bank write bursts
system.mem_ctrl.perBankWrBursts::0               1029                       # Per bank write bursts
system.mem_ctrl.perBankWrBursts::1               2292                       # Per bank write bursts
system.mem_ctrl.perBankWrBursts::2               1275                       # Per bank write bursts
system.mem_ctrl.perBankWrBursts::3               1038                       # Per bank write bursts
system.mem_ctrl.perBankWrBursts::4               1116                       # Per bank write bursts
system.mem_ctrl.perBankWrBursts::5               1107                       # Per bank write bursts
system.mem_ctrl.perBankWrBursts::6               1239                       # Per bank write bursts
system.mem_ctrl.perBankWrBursts::7               1139                       # Per bank write bursts
system.mem_ctrl.perBankWrBursts::8               1224                       # Per bank write bursts
system.mem_ctrl.perBankWrBursts::9               1200                       # Per bank write bursts
system.mem_ctrl.perBankWrBursts::10             34303                       # Per bank write bursts
system.mem_ctrl.perBankWrBursts::11              2608                       # Per bank write bursts
system.mem_ctrl.perBankWrBursts::12              1151                       # Per bank write bursts
system.mem_ctrl.perBankWrBursts::13              3378                       # Per bank write bursts
system.mem_ctrl.perBankWrBursts::14              1229                       # Per bank write bursts
system.mem_ctrl.perBankWrBursts::15              1179                       # Per bank write bursts
system.mem_ctrl.avgRdQLen                        1.00                       # Average read queue length when enqueuing
system.mem_ctrl.avgWrQLen                       27.42                       # Average write queue length when enqueuing
system.mem_ctrl.totQLat                   25034261250                       # Total ticks spent queuing
system.mem_ctrl.totBusLat                 37570595000                       # Total ticks spent in databus transfers
system.mem_ctrl.totMemAccLat             165923992500                       # Total ticks spent from burst creation until serviced by the DRAM
system.mem_ctrl.avgQLat                       3331.63                       # Average queueing delay per DRAM burst
system.mem_ctrl.avgBusLat                     5000.00                       # Average bus latency per DRAM burst
system.mem_ctrl.avgMemAccLat                 22081.63                       # Average memory access latency per DRAM burst
system.mem_ctrl.numRdRetry                          0                       # Number of times read queue was full causing retry
system.mem_ctrl.numWrRetry                          0                       # Number of times write queue was full causing retry
system.mem_ctrl.readRowHits                   6800868                       # Number of row buffer hits during reads
system.mem_ctrl.writeRowHits                    44021                       # Number of row buffer hits during writes
system.mem_ctrl.readRowHitRate                  90.51                       # Row buffer hit rate for reads
system.mem_ctrl.writeRowHitRate                 77.86                       # Row buffer hit rate for writes
system.mem_ctrl.readPktSize::0                 107955                       # Read request sizes (log2)
system.mem_ctrl.readPktSize::1                   5686                       # Read request sizes (log2)
system.mem_ctrl.readPktSize::2                 162919                       # Read request sizes (log2)
system.mem_ctrl.readPktSize::3                7307919                       # Read request sizes (log2)
system.mem_ctrl.readPktSize::4                      0                       # Read request sizes (log2)
system.mem_ctrl.readPktSize::5                      0                       # Read request sizes (log2)
system.mem_ctrl.readPktSize::6                   5548                       # Read request sizes (log2)
system.mem_ctrl.writePktSize::0                 35915                       # Write request sizes (log2)
system.mem_ctrl.writePktSize::1                  1898                       # Write request sizes (log2)
system.mem_ctrl.writePktSize::2                113527                       # Write request sizes (log2)
system.mem_ctrl.writePktSize::3                396414                       # Write request sizes (log2)
system.mem_ctrl.writePktSize::4                     0                       # Write request sizes (log2)
system.mem_ctrl.writePktSize::5                     0                       # Write request sizes (log2)
system.mem_ctrl.writePktSize::6                     0                       # Write request sizes (log2)
system.mem_ctrl.rdQLenPdf::0                  7513764                       # What read queue length does an incoming req see
system.mem_ctrl.rdQLenPdf::1                      355                       # What read queue length does an incoming req see
system.mem_ctrl.rdQLenPdf::2                        0                       # What read queue length does an incoming req see
system.mem_ctrl.rdQLenPdf::3                        0                       # What read queue length does an incoming req see
system.mem_ctrl.rdQLenPdf::4                        0                       # What read queue length does an incoming req see
system.mem_ctrl.rdQLenPdf::5                        0                       # What read queue length does an incoming req see
system.mem_ctrl.rdQLenPdf::6                        0                       # What read queue length does an incoming req see
system.mem_ctrl.rdQLenPdf::7                        0                       # What read queue length does an incoming req see
system.mem_ctrl.rdQLenPdf::8                        0                       # What read queue length does an incoming req see
system.mem_ctrl.rdQLenPdf::9                        0                       # What read queue length does an incoming req see
system.mem_ctrl.rdQLenPdf::10                       0                       # What read queue length does an incoming req see
system.mem_ctrl.rdQLenPdf::11                       0                       # What read queue length does an incoming req see
system.mem_ctrl.rdQLenPdf::12                       0                       # What read queue length does an incoming req see
system.mem_ctrl.rdQLenPdf::13                       0                       # What read queue length does an incoming req see
system.mem_ctrl.rdQLenPdf::14                       0                       # What read queue length does an incoming req see
system.mem_ctrl.rdQLenPdf::15                       0                       # What read queue length does an incoming req see
system.mem_ctrl.rdQLenPdf::16                       0                       # What read queue length does an incoming req see
system.mem_ctrl.rdQLenPdf::17                       0                       # What read queue length does an incoming req see
system.mem_ctrl.rdQLenPdf::18                       0                       # What read queue length does an incoming req see
system.mem_ctrl.rdQLenPdf::19                       0                       # What read queue length does an incoming req see
system.mem_ctrl.rdQLenPdf::20                       0                       # What read queue length does an incoming req see
system.mem_ctrl.rdQLenPdf::21                       0                       # What read queue length does an incoming req see
system.mem_ctrl.rdQLenPdf::22                       0                       # What read queue length does an incoming req see
system.mem_ctrl.rdQLenPdf::23                       0                       # What read queue length does an incoming req see
system.mem_ctrl.rdQLenPdf::24                       0                       # What read queue length does an incoming req see
system.mem_ctrl.rdQLenPdf::25                       0                       # What read queue length does an incoming req see
system.mem_ctrl.rdQLenPdf::26                       0                       # What read queue length does an incoming req see
system.mem_ctrl.rdQLenPdf::27                       0                       # What read queue length does an incoming req see
system.mem_ctrl.rdQLenPdf::28                       0                       # What read queue length does an incoming req see
system.mem_ctrl.rdQLenPdf::29                       0                       # What read queue length does an incoming req see
system.mem_ctrl.rdQLenPdf::30                       0                       # What read queue length does an incoming req see
system.mem_ctrl.rdQLenPdf::31                       0                       # What read queue length does an incoming req see
system.mem_ctrl.wrQLenPdf::0                        1                       # What write queue length does an incoming req see
system.mem_ctrl.wrQLenPdf::1                        1                       # What write queue length does an incoming req see
system.mem_ctrl.wrQLenPdf::2                        1                       # What write queue length does an incoming req see
system.mem_ctrl.wrQLenPdf::3                        1                       # What write queue length does an incoming req see
system.mem_ctrl.wrQLenPdf::4                        1                       # What write queue length does an incoming req see
system.mem_ctrl.wrQLenPdf::5                        1                       # What write queue length does an incoming req see
system.mem_ctrl.wrQLenPdf::6                        1                       # What write queue length does an incoming req see
system.mem_ctrl.wrQLenPdf::7                        1                       # What write queue length does an incoming req see
system.mem_ctrl.wrQLenPdf::8                        1                       # What write queue length does an incoming req see
system.mem_ctrl.wrQLenPdf::9                        1                       # What write queue length does an incoming req see
system.mem_ctrl.wrQLenPdf::10                       1                       # What write queue length does an incoming req see
system.mem_ctrl.wrQLenPdf::11                       1                       # What write queue length does an incoming req see
system.mem_ctrl.wrQLenPdf::12                       1                       # What write queue length does an incoming req see
system.mem_ctrl.wrQLenPdf::13                       1                       # What write queue length does an incoming req see
system.mem_ctrl.wrQLenPdf::14                       1                       # What write queue length does an incoming req see
system.mem_ctrl.wrQLenPdf::15                       6                       # What write queue length does an incoming req see
system.mem_ctrl.wrQLenPdf::16                       6                       # What write queue length does an incoming req see
system.mem_ctrl.wrQLenPdf::17                    3532                       # What write queue length does an incoming req see
system.mem_ctrl.wrQLenPdf::18                    3532                       # What write queue length does an incoming req see
system.mem_ctrl.wrQLenPdf::19                    3533                       # What write queue length does an incoming req see
system.mem_ctrl.wrQLenPdf::20                    3532                       # What write queue length does an incoming req see
system.mem_ctrl.wrQLenPdf::21                    3532                       # What write queue length does an incoming req see
system.mem_ctrl.wrQLenPdf::22                    3532                       # What write queue length does an incoming req see
system.mem_ctrl.wrQLenPdf::23                    3532                       # What write queue length does an incoming req see
system.mem_ctrl.wrQLenPdf::24                    3532                       # What write queue length does an incoming req see
system.mem_ctrl.wrQLenPdf::25                    3532                       # What write queue length does an incoming req see
system.mem_ctrl.wrQLenPdf::26                    3532                       # What write queue length does an incoming req see
system.mem_ctrl.wrQLenPdf::27                    3532                       # What write queue length does an incoming req see
system.mem_ctrl.wrQLenPdf::28                    3532                       # What write queue length does an incoming req see
system.mem_ctrl.wrQLenPdf::29                    3532                       # What write queue length does an incoming req see
system.mem_ctrl.wrQLenPdf::30                    3532                       # What write queue length does an incoming req see
system.mem_ctrl.wrQLenPdf::31                    3531                       # What write queue length does an incoming req see
system.mem_ctrl.wrQLenPdf::32                    3531                       # What write queue length does an incoming req see
system.mem_ctrl.wrQLenPdf::33                       0                       # What write queue length does an incoming req see
system.mem_ctrl.wrQLenPdf::34                       0                       # What write queue length does an incoming req see
system.mem_ctrl.wrQLenPdf::35                       0                       # What write queue length does an incoming req see
system.mem_ctrl.wrQLenPdf::36                       0                       # What write queue length does an incoming req see
system.mem_ctrl.wrQLenPdf::37                       0                       # What write queue length does an incoming req see
system.mem_ctrl.wrQLenPdf::38                       0                       # What write queue length does an incoming req see
system.mem_ctrl.wrQLenPdf::39                       0                       # What write queue length does an incoming req see
system.mem_ctrl.wrQLenPdf::40                       0                       # What write queue length does an incoming req see
system.mem_ctrl.wrQLenPdf::41                       0                       # What write queue length does an incoming req see
system.mem_ctrl.wrQLenPdf::42                       0                       # What write queue length does an incoming req see
system.mem_ctrl.wrQLenPdf::43                       0                       # What write queue length does an incoming req see
system.mem_ctrl.wrQLenPdf::44                       0                       # What write queue length does an incoming req see
system.mem_ctrl.wrQLenPdf::45                       0                       # What write queue length does an incoming req see
system.mem_ctrl.wrQLenPdf::46                       0                       # What write queue length does an incoming req see
system.mem_ctrl.wrQLenPdf::47                       0                       # What write queue length does an incoming req see
system.mem_ctrl.wrQLenPdf::48                       0                       # What write queue length does an incoming req see
system.mem_ctrl.wrQLenPdf::49                       0                       # What write queue length does an incoming req see
system.mem_ctrl.wrQLenPdf::50                       0                       # What write queue length does an incoming req see
system.mem_ctrl.wrQLenPdf::51                       0                       # What write queue length does an incoming req see
system.mem_ctrl.wrQLenPdf::52                       0                       # What write queue length does an incoming req see
system.mem_ctrl.wrQLenPdf::53                       0                       # What write queue length does an incoming req see
system.mem_ctrl.wrQLenPdf::54                       0                       # What write queue length does an incoming req see
system.mem_ctrl.wrQLenPdf::55                       0                       # What write queue length does an incoming req see
system.mem_ctrl.wrQLenPdf::56                       0                       # What write queue length does an incoming req see
system.mem_ctrl.wrQLenPdf::57                       0                       # What write queue length does an incoming req see
system.mem_ctrl.wrQLenPdf::58                       0                       # What write queue length does an incoming req see
system.mem_ctrl.wrQLenPdf::59                       0                       # What write queue length does an incoming req see
system.mem_ctrl.wrQLenPdf::60                       0                       # What write queue length does an incoming req see
system.mem_ctrl.wrQLenPdf::61                       0                       # What write queue length does an incoming req see
system.mem_ctrl.wrQLenPdf::62                       0                       # What write queue length does an incoming req see
system.mem_ctrl.wrQLenPdf::63                       0                       # What write queue length does an incoming req see
system.mem_ctrl.bytesPerActivate::samples       725735                       # Bytes accessed per row activation
system.mem_ctrl.bytesPerActivate::mean     667.625026                       # Bytes accessed per row activation
system.mem_ctrl.bytesPerActivate::gmean    440.851202                       # Bytes accessed per row activation
system.mem_ctrl.bytesPerActivate::stdev    413.083328                       # Bytes accessed per row activation
system.mem_ctrl.bytesPerActivate::0-127        142616     19.65%     19.65% # Bytes accessed per row activation
system.mem_ctrl.bytesPerActivate::128-255        53336      7.35%     27.00% # Bytes accessed per row activation
system.mem_ctrl.bytesPerActivate::256-383        42900      5.91%     32.91% # Bytes accessed per row activation
system.mem_ctrl.bytesPerActivate::384-511        29554      4.07%     36.98% # Bytes accessed per row activation
system.mem_ctrl.bytesPerActivate::512-639        22841      3.15%     40.13% # Bytes accessed per row activation
system.mem_ctrl.bytesPerActivate::640-767        23799      3.28%     43.41% # Bytes accessed per row activation
system.mem_ctrl.bytesPerActivate::768-895        20826      2.87%     46.28% # Bytes accessed per row activation
system.mem_ctrl.bytesPerActivate::896-1023        16609      2.29%     48.57% # Bytes accessed per row activation
system.mem_ctrl.bytesPerActivate::1024-1151       373254     51.43%    100.00% # Bytes accessed per row activation
system.mem_ctrl.bytesPerActivate::total        725735                       # Bytes accessed per row activation
system.mem_ctrl.rdPerTurnAround::samples         3531                       # Reads before turning the bus around for writes
system.mem_ctrl.rdPerTurnAround::mean     1548.453696                       # Reads before turning the bus around for writes
system.mem_ctrl.rdPerTurnAround::gmean    1229.263905                       # Reads before turning the bus around for writes
system.mem_ctrl.rdPerTurnAround::stdev     950.120168                       # Reads before turning the bus around for writes
system.mem_ctrl.rdPerTurnAround::256-511          411     11.64%     11.64% # Reads before turning the bus around for writes
system.mem_ctrl.rdPerTurnAround::512-767         1120     31.72%     43.36% # Reads before turning the bus around for writes
system.mem_ctrl.rdPerTurnAround::768-1023           54      1.53%     44.89% # Reads before turning the bus around for writes
system.mem_ctrl.rdPerTurnAround::1024-1279           20      0.57%     45.45% # Reads before turning the bus around for writes
system.mem_ctrl.rdPerTurnAround::1280-1535          117      3.31%     48.77% # Reads before turning the bus around for writes
system.mem_ctrl.rdPerTurnAround::1536-1791           54      1.53%     50.30% # Reads before turning the bus around for writes
system.mem_ctrl.rdPerTurnAround::1792-2047           17      0.48%     50.78% # Reads before turning the bus around for writes
system.mem_ctrl.rdPerTurnAround::2048-2303          554     15.69%     66.47% # Reads before turning the bus around for writes
system.mem_ctrl.rdPerTurnAround::2304-2559          903     25.57%     92.04% # Reads before turning the bus around for writes
system.mem_ctrl.rdPerTurnAround::2560-2815          181      5.13%     97.17% # Reads before turning the bus around for writes
system.mem_ctrl.rdPerTurnAround::2816-3071           68      1.93%     99.09% # Reads before turning the bus around for writes
system.mem_ctrl.rdPerTurnAround::4096-4351            2      0.06%     99.15% # Reads before turning the bus around for writes
system.mem_ctrl.rdPerTurnAround::4608-4863            1      0.03%     99.18% # Reads before turning the bus around for writes
system.mem_ctrl.rdPerTurnAround::4864-5119           13      0.37%     99.55% # Reads before turning the bus around for writes
system.mem_ctrl.rdPerTurnAround::5120-5375           14      0.40%     99.94% # Reads before turning the bus around for writes
system.mem_ctrl.rdPerTurnAround::5376-5631            1      0.03%     99.97% # Reads before turning the bus around for writes
system.mem_ctrl.rdPerTurnAround::5888-6143            1      0.03%    100.00% # Reads before turning the bus around for writes
system.mem_ctrl.rdPerTurnAround::total           3531                       # Reads before turning the bus around for writes
system.mem_ctrl.wrPerTurnAround::samples         3531                       # Writes before turning the bus around for reads
system.mem_ctrl.wrPerTurnAround::mean       16.003115                       # Writes before turning the bus around for reads
system.mem_ctrl.wrPerTurnAround::gmean      16.002914                       # Writes before turning the bus around for reads
system.mem_ctrl.wrPerTurnAround::stdev       0.084098                       # Writes before turning the bus around for reads
system.mem_ctrl.wrPerTurnAround::16              3526     99.86%     99.86% # Writes before turning the bus around for reads
system.mem_ctrl.wrPerTurnAround::18                 4      0.11%     99.97% # Writes before turning the bus around for reads
system.mem_ctrl.wrPerTurnAround::19                 1      0.03%    100.00% # Writes before turning the bus around for reads
system.mem_ctrl.wrPerTurnAround::total           3531                       # Writes before turning the bus around for reads
system.mem_ctrl.bytesReadDRAM               480903616                       # Total number of bytes read from DRAM
system.mem_ctrl.bytesReadWrQ                  4858112                       # Total number of bytes read from write queue
system.mem_ctrl.bytesWritten                  3616448                       # Total number of bytes written to DRAM
system.mem_ctrl.bytesReadSys                 59588719                       # Total read bytes from the system interface side
system.mem_ctrl.bytesWrittenSys               3665131                       # Total written bytes from the system interface side
system.mem_ctrl.avgRdBW                       1176.83                       # Average DRAM read bandwidth in MiByte/s
system.mem_ctrl.avgWrBW                          8.85                       # Average achieved write bandwidth in MiByte/s
system.mem_ctrl.avgRdBWSys                     145.82                       # Average system read bandwidth in MiByte/s
system.mem_ctrl.avgWrBWSys                       8.97                       # Average system write bandwidth in MiByte/s
system.mem_ctrl.peakBW                       12800.00                       # Theoretical peak bandwidth in MiByte/s
system.mem_ctrl.busUtil                          9.26                       # Data bus utilization in percentage
system.mem_ctrl.busUtilRead                      9.19                       # Data bus utilization in percentage for reads
system.mem_ctrl.busUtilWrite                     0.07                       # Data bus utilization in percentage for writes
system.mem_ctrl.totGap                   408643153000                       # Total gap between requests
system.mem_ctrl.avgGap                       50215.55                       # Average gap between requests
system.mem_ctrl.masterReadBytes::.cpu.inst     54729000                       # Per-master bytes read from memory
system.mem_ctrl.masterReadBytes::.cpu.data      4356036                       # Per-master bytes read from memory
system.mem_ctrl.masterWriteBytes::.cpu.data       385765                       # Per-master bytes write to memory
system.mem_ctrl.masterReadRate::.cpu.inst 133928561.596383228898                       # Per-master bytes read from memory rate (Bytes/sec)
system.mem_ctrl.masterReadRate::.cpu.data 10659753.252244016156                       # Per-master bytes read from memory rate (Bytes/sec)
system.mem_ctrl.masterWriteRate::.cpu.data 944014.170992139028                       # Per-master bytes write to memory rate (Bytes/sec)
system.mem_ctrl.masterReadAccesses::.cpu.inst      6841125                       # Per-master read serviced memory accesses
system.mem_ctrl.masterReadAccesses::.cpu.data       748902                       # Per-master read serviced memory accesses
system.mem_ctrl.masterWriteAccesses::.cpu.data       547754                       # Per-master write serviced memory accesses
system.mem_ctrl.masterReadTotalLat::.cpu.inst 148583172500                       # Per-master read total memory access latency
system.mem_ctrl.masterReadTotalLat::.cpu.data  17340820000                       # Per-master read total memory access latency
system.mem_ctrl.masterWriteTotalLat::.cpu.data 7775984326500                       # Per-master write total memory access latency
system.mem_ctrl.masterReadAvgLat::.cpu.inst     21719.11                       # Per-master read average memory access latency
system.mem_ctrl.masterReadAvgLat::.cpu.data     23154.99                       # Per-master read average memory access latency
system.mem_ctrl.masterWriteAvgLat::.cpu.data  14196125.13                       # Per-master write average memory access latency
system.mem_ctrl.pageHitRate                     90.41                       # Row buffer hit rate, read and write combined
system.mem_ctrl.rank1.actEnergy            2661406440                       # Energy for activate commands per rank (pJ)
system.mem_ctrl.rank1.preEnergy            1414567275                       # Energy for precharge commands per rank (pJ)
system.mem_ctrl.rank1.readEnergy          22816312680                       # Energy for read commands per rank (pJ)
system.mem_ctrl.rank1.writeEnergy           241539840                       # Energy for write commands per rank (pJ)
system.mem_ctrl.rank1.refreshEnergy      32257536480.000004                       # Energy for refresh commands per rank (pJ)
system.mem_ctrl.rank1.actBackEnergy      157592913720                       # Energy for active background per rank (pJ)
system.mem_ctrl.rank1.preBackEnergy       24209178240                       # Energy for precharge background per rank (pJ)
system.mem_ctrl.rank1.actPowerDownEnergy            0                       # Energy for active power-down per rank (pJ)
system.mem_ctrl.rank1.prePowerDownEnergy            0                       # Energy for precharge power-down per rank (pJ)
system.mem_ctrl.rank1.selfRefreshEnergy             0                       # Energy for self refresh per rank (pJ)
system.mem_ctrl.rank1.totalEnergy        241193454675                       # Total energy per rank (pJ)
system.mem_ctrl.rank1.averagePower         590.229905                       # Core power per rank (mW)
system.mem_ctrl.rank1.totalIdleTime                 0                       # Total Idle time Per DRAM Rank
system.mem_ctrl.rank1.memoryStateTime::IDLE  60741848000                       # Time in different power states
system.mem_ctrl.rank1.memoryStateTime::REF  13645320000                       # Time in different power states
system.mem_ctrl.rank1.memoryStateTime::SREF            0                       # Time in different power states
system.mem_ctrl.rank1.memoryStateTime::PRE_PDN            0                       # Time in different power states
system.mem_ctrl.rank1.memoryStateTime::ACT 334256062000                       # Time in different power states
system.mem_ctrl.rank1.memoryStateTime::ACT_PDN            0                       # Time in different power states
system.mem_ctrl.rank0.actEnergy            2520355740                       # Energy for activate commands per rank (pJ)
system.mem_ctrl.rank0.preEnergy            1339597050                       # Energy for precharge commands per rank (pJ)
system.mem_ctrl.rank0.readEnergy          30834496980                       # Energy for read commands per rank (pJ)
system.mem_ctrl.rank0.writeEnergy            53426700                       # Energy for write commands per rank (pJ)
system.mem_ctrl.rank0.refreshEnergy      32257536480.000004                       # Energy for refresh commands per rank (pJ)
system.mem_ctrl.rank0.actBackEnergy      145907404140                       # Energy for active background per rank (pJ)
system.mem_ctrl.rank0.preBackEnergy       34049607360                       # Energy for precharge background per rank (pJ)
system.mem_ctrl.rank0.actPowerDownEnergy            0                       # Energy for active power-down per rank (pJ)
system.mem_ctrl.rank0.prePowerDownEnergy            0                       # Energy for precharge power-down per rank (pJ)
system.mem_ctrl.rank0.selfRefreshEnergy             0                       # Energy for self refresh per rank (pJ)
system.mem_ctrl.rank0.totalEnergy        246962424450                       # Total energy per rank (pJ)
system.mem_ctrl.rank0.averagePower         604.347280                       # Core power per rank (mW)
system.mem_ctrl.rank0.totalIdleTime                 0                       # Total Idle time Per DRAM Rank
system.mem_ctrl.rank0.memoryStateTime::IDLE  85113830250                       # Time in different power states
system.mem_ctrl.rank0.memoryStateTime::REF  13645320000                       # Time in different power states
system.mem_ctrl.rank0.memoryStateTime::SREF            0                       # Time in different power states
system.mem_ctrl.rank0.memoryStateTime::PRE_PDN            0                       # Time in different power states
system.mem_ctrl.rank0.memoryStateTime::ACT 309884079750                       # Time in different power states
system.mem_ctrl.rank0.memoryStateTime::ACT_PDN            0                       # Time in different power states
system.mem_ctrl.power_state.pwrStateResidencyTicks::UNDEFINED 408643230000                       # Cumulative time (in ticks) in various power states
system.cache.demand_hits::.cpu.data            543235                       # number of demand (read+write) hits
system.cache.demand_hits::total                543235                       # number of demand (read+write) hits
system.cache.overall_hits::.cpu.data           543235                       # number of overall hits
system.cache.overall_hits::total               543235                       # number of overall hits
system.cache.demand_misses::.cpu.data            5548                       # number of demand (read+write) misses
system.cache.demand_misses::total                5548                       # number of demand (read+write) misses
system.cache.overall_misses::.cpu.data           5548                       # number of overall misses
system.cache.overall_misses::total               5548                       # number of overall misses
system.cache.demand_miss_latency::.cpu.data    381535000                       # number of demand (read+write) miss cycles
system.cache.demand_miss_latency::total     381535000                       # number of demand (read+write) miss cycles
system.cache.overall_miss_latency::.cpu.data    381535000                       # number of overall miss cycles
system.cache.overall_miss_latency::total    381535000                       # number of overall miss cycles
system.cache.demand_accesses::.cpu.data        548783                       # number of demand (read+write) accesses
system.cache.demand_accesses::total            548783                       # number of demand (read+write) accesses
system.cache.overall_accesses::.cpu.data       548783                       # number of overall (read+write) accesses
system.cache.overall_accesses::total           548783                       # number of overall (read+write) accesses
system.cache.demand_miss_rate::.cpu.data     0.010110                       # miss rate for demand accesses
system.cache.demand_miss_rate::total         0.010110                       # miss rate for demand accesses
system.cache.overall_miss_rate::.cpu.data     0.010110                       # miss rate for overall accesses
system.cache.overall_miss_rate::total        0.010110                       # miss rate for overall accesses
system.cache.demand_avg_miss_latency::.cpu.data 68769.826965                       # average overall miss latency
system.cache.demand_avg_miss_latency::total 68769.826965                       # average overall miss latency
system.cache.overall_avg_miss_latency::.cpu.data 68769.826965                       # average overall miss latency
system.cache.overall_avg_miss_latency::total 68769.826965                       # average overall miss latency
system.cache.blocked_cycles::no_mshrs               0                       # number of cycles access was blocked
system.cache.blocked_cycles::no_targets             0                       # number of cycles access was blocked
system.cache.blocked::no_mshrs                      0                       # number of cycles access was blocked
system.cache.blocked::no_targets                    0                       # number of cycles access was blocked
system.cache.avg_blocked_cycles::no_mshrs          nan                       # average number of cycles each access was blocked
system.cache.avg_blocked_cycles::no_targets          nan                       # average number of cycles each access was blocked
system.cache.demand_mshr_misses::.cpu.data         5548                       # number of demand (read+write) MSHR misses
system.cache.demand_mshr_misses::total           5548                       # number of demand (read+write) MSHR misses
system.cache.overall_mshr_misses::.cpu.data         5548                       # number of overall MSHR misses
system.cache.overall_mshr_misses::total          5548                       # number of overall MSHR misses
system.cache.demand_mshr_miss_latency::.cpu.data    370439000                       # number of demand (read+write) MSHR miss cycles
system.cache.demand_mshr_miss_latency::total    370439000                       # number of demand (read+write) MSHR miss cycles
system.cache.overall_mshr_miss_latency::.cpu.data    370439000                       # number of overall MSHR miss cycles
system.cache.overall_mshr_miss_latency::total    370439000                       # number of overall MSHR miss cycles
system.cache.demand_mshr_miss_rate::.cpu.data     0.010110                       # mshr miss rate for demand accesses
system.cache.demand_mshr_miss_rate::total     0.010110                       # mshr miss rate for demand accesses
system.cache.overall_mshr_miss_rate::.cpu.data     0.010110                       # mshr miss rate for overall accesses
system.cache.overall_mshr_miss_rate::total     0.010110                       # mshr miss rate for overall accesses
system.cache.demand_avg_mshr_miss_latency::.cpu.data 66769.826965                       # average overall mshr miss latency
system.cache.demand_avg_mshr_miss_latency::total 66769.826965                       # average overall mshr miss latency
system.cache.overall_avg_mshr_miss_latency::.cpu.data 66769.826965                       # average overall mshr miss latency
system.cache.overall_avg_mshr_miss_latency::total 66769.826965                       # average overall mshr miss latency
system.cache.replacements                           0                       # number of replacements
system.cache.ReadReq_hits::.cpu.data           315332                       # number of ReadReq hits
system.cache.ReadReq_hits::total               315332                       # number of ReadReq hits
system.cache.ReadReq_misses::.cpu.data            762                       # number of ReadReq misses
system.cache.ReadReq_misses::total                762                       # number of ReadReq misses
system.cache.ReadReq_miss_latency::.cpu.data     49880000                       # number of ReadReq miss cycles
system.cache.ReadReq_miss_latency::total     49880000                       # number of ReadReq miss cycles
system.cache.ReadReq_accesses::.cpu.data       316094                       # number of ReadReq accesses(hits+misses)
system.cache.ReadReq_accesses::total           316094                       # number of ReadReq accesses(hits+misses)
system.cache.ReadReq_miss_rate::.cpu.data     0.002411                       # miss rate for ReadReq accesses
system.cache.ReadReq_miss_rate::total        0.002411                       # miss rate for ReadReq accesses
system.cache.ReadReq_avg_miss_latency::.cpu.data 65459.317585                       # average ReadReq miss latency
system.cache.ReadReq_avg_miss_latency::total 65459.317585                       # average ReadReq miss latency
system.cache.ReadReq_mshr_misses::.cpu.data          762                       # number of ReadReq MSHR misses
system.cache.ReadReq_mshr_misses::total           762                       # number of ReadReq MSHR misses
system.cache.ReadReq_mshr_miss_latency::.cpu.data     48356000                       # number of ReadReq MSHR miss cycles
system.cache.ReadReq_mshr_miss_latency::total     48356000                       # number of ReadReq MSHR miss cycles
system.cache.ReadReq_mshr_miss_rate::.cpu.data     0.002411                       # mshr miss rate for ReadReq accesses
system.cache.ReadReq_mshr_miss_rate::total     0.002411                       # mshr miss rate for ReadReq accesses
system.cache.ReadReq_avg_mshr_miss_latency::.cpu.data 63459.317585                       # average ReadReq mshr miss latency
system.cache.ReadReq_avg_mshr_miss_latency::total 63459.317585                       # average ReadReq mshr miss latency
system.cache.WriteReq_hits::.cpu.data          227903                       # number of WriteReq hits
system.cache.WriteReq_hits::total              227903                       # number of WriteReq hits
system.cache.WriteReq_misses::.cpu.data          4786                       # number of WriteReq misses
system.cache.WriteReq_misses::total              4786                       # number of WriteReq misses
system.cache.WriteReq_miss_latency::.cpu.data    331655000                       # number of WriteReq miss cycles
system.cache.WriteReq_miss_latency::total    331655000                       # number of WriteReq miss cycles
system.cache.WriteReq_accesses::.cpu.data       232689                       # number of WriteReq accesses(hits+misses)
system.cache.WriteReq_accesses::total          232689                       # number of WriteReq accesses(hits+misses)
system.cache.WriteReq_miss_rate::.cpu.data     0.020568                       # miss rate for WriteReq accesses
system.cache.WriteReq_miss_rate::total       0.020568                       # miss rate for WriteReq accesses
system.cache.WriteReq_avg_miss_latency::.cpu.data 69296.907647                       # average WriteReq miss latency
system.cache.WriteReq_avg_miss_latency::total 69296.907647                       # average WriteReq miss latency
system.cache.WriteReq_mshr_misses::.cpu.data         4786                       # number of WriteReq MSHR misses
system.cache.WriteReq_mshr_misses::total         4786                       # number of WriteReq MSHR misses
system.cache.WriteReq_mshr_miss_latency::.cpu.data    322083000                       # number of WriteReq MSHR miss cycles
system.cache.WriteReq_mshr_miss_latency::total    322083000                       # number of WriteReq MSHR miss cycles
system.cache.WriteReq_mshr_miss_rate::.cpu.data     0.020568                       # mshr miss rate for WriteReq accesses
system.cache.WriteReq_mshr_miss_rate::total     0.020568                       # mshr miss rate for WriteReq accesses
system.cache.WriteReq_avg_mshr_miss_latency::.cpu.data 67296.907647                       # average WriteReq mshr miss latency
system.cache.WriteReq_avg_mshr_miss_latency::total 67296.907647                       # average WriteReq mshr miss latency
system.cache.power_state.pwrStateResidencyTicks::UNDEFINED 408643230000                       # Cumulative time (in ticks) in various power states
system.cache.tags.tagsinuse                745.458553                       # Cycle average of tags in use
system.cache.tags.total_refs                   548783                       # Total number of references to valid blocks.
system.cache.tags.sampled_refs                   5548                       # Sample count of references to valid blocks.
system.cache.tags.avg_refs                  98.915465                       # Average number of references to valid blocks.
system.cache.tags.warmup_cycle           300676242000                       # Cycle when the warmup percentage was hit.
system.cache.tags.occ_blocks::.cpu.data    745.458553                       # Average occupied blocks per requestor
system.cache.tags.occ_percent::.cpu.data     0.022750                       # Average percentage of cache occupancy
system.cache.tags.occ_percent::total         0.022750                       # Average percentage of cache occupancy
system.cache.tags.occ_task_id_blocks::1024         5548                       # Occupied blocks per task id
system.cache.tags.age_task_id_blocks_1024::1            6                       # Occupied blocks per task id
system.cache.tags.age_task_id_blocks_1024::2           49                       # Occupied blocks per task id
system.cache.tags.age_task_id_blocks_1024::3          450                       # Occupied blocks per task id
system.cache.tags.age_task_id_blocks_1024::4         5043                       # Occupied blocks per task id
system.cache.tags.occ_task_id_percent::1024     0.169312                       # Percentage of cache occupancy per task id
system.cache.tags.tag_accesses                 554331                       # Number of tag accesses
system.cache.tags.data_accesses                554331                       # Number of data accesses
system.cache.tags.power_state.pwrStateResidencyTicks::UNDEFINED 408643230000                       # Cumulative time (in ticks) in various power states
system.clk_domain.clock                          1000                       # Clock period in ticks
system.clk_domain.voltage_domain.voltage            1                       # Voltage in Volts
system.cachebus.trans_dist::ReadReq            316094                       # Transaction distribution
system.cachebus.trans_dist::ReadResp           316094                       # Transaction distribution
system.cachebus.trans_dist::WriteReq           232689                       # Transaction distribution
system.cachebus.trans_dist::WriteResp          232689                       # Transaction distribution
system.cachebus.pkt_count_system.memobj.cache_side::system.cache.cpu_side      1097566                       # Packet count per connected master and slave (bytes)
system.cachebus.pkt_size_system.memobj.cache_side::system.cache.cpu_side      3471156                       # Cumulative packet size per connected master and slave (bytes)
system.cachebus.snoops                              0                       # Total snoops (count)
system.cachebus.snoopTraffic                        0                       # Total snoop traffic (bytes)
system.cachebus.snoop_fanout::samples          548783                       # Request fanout histogram
system.cachebus.snoop_fanout::mean                  0                       # Request fanout histogram
system.cachebus.snoop_fanout::stdev                 0                       # Request fanout histogram
system.cachebus.snoop_fanout::underflows            0      0.00%      0.00% # Request fanout histogram
system.cachebus.snoop_fanout::0                548783    100.00%    100.00% # Request fanout histogram
system.cachebus.snoop_fanout::overflows             0      0.00%    100.00% # Request fanout histogram
system.cachebus.snoop_fanout::min_value             0                       # Request fanout histogram
system.cachebus.snoop_fanout::max_value             0                       # Request fanout histogram
system.cachebus.snoop_fanout::total            548783                       # Request fanout histogram
system.cachebus.reqLayer0.occupancy         781472000                       # Layer occupancy (ticks)
system.cachebus.reqLayer0.utilization             0.2                       # Layer utilization (%)
system.cachebus.respLayer0.occupancy        864877000                       # Layer occupancy (ticks)
system.cachebus.respLayer0.utilization            0.2                       # Layer utilization (%)
system.cachebus.power_state.pwrStateResidencyTicks::UNDEFINED 408643230000                       # Cumulative time (in ticks) in various power states
system.cpu.dtb.walker.power_state.pwrStateResidencyTicks::UNDEFINED 408643230000                       # Cumulative time (in ticks) in various power states
system.cpu.interrupts.clk_domain.clock          16000                       # Clock period in ticks
system.cpu.itb.walker.power_state.pwrStateResidencyTicks::UNDEFINED 408643230000                       # Cumulative time (in ticks) in various power states
system.cpu.power_state.numTransitions               1                       # Number of power state transitions
system.cpu.power_state.pwrStateResidencyTicks::ON 408643230000                       # Cumulative time (in ticks) in various power states

---------- End Simulation Statistics   ----------
