
---------- Begin Simulation Statistics ----------
final_tick                                 3826674000                       # Number of ticks from beginning of simulation (restored from checkpoints and never reset)
host_inst_rate                                 109766                       # Simulator instruction rate (inst/s)
host_mem_usage                               34400112                       # Number of bytes of host memory used
host_op_rate                                   220999                       # Simulator op (including micro ops) rate (op/s)
host_seconds                                     9.11                       # Real time elapsed on the host
host_tick_rate                              420013073                       # Simulator tick rate (ticks/s)
sim_freq                                 1000000000000                       # Frequency of simulated ticks
sim_insts                                     1000025                       # Number of instructions simulated
sim_ops                                       2013478                       # Number of ops (including micro ops) simulated
sim_seconds                                  0.003827                       # Number of seconds simulated
sim_ticks                                  3826674000                       # Number of ticks simulated
system.cpu.Branches                            240145                       # Number of branches fetched
system.cpu.committedInsts                     1000025                       # Number of instructions committed
system.cpu.committedOps                       2013478                       # Number of ops (including micro ops) committed
system.cpu.dtb.rdAccesses                      177660                       # TLB accesses on read requests
system.cpu.dtb.rdMisses                           269                       # TLB misses on read requests
system.cpu.dtb.wrAccesses                      135779                       # TLB accesses on write requests
system.cpu.dtb.wrMisses                           203                       # TLB misses on write requests
system.cpu.idle_fraction                            0                       # Percentage of idle cycles
system.cpu.itb.rdAccesses                           0                       # TLB accesses on read requests
system.cpu.itb.rdMisses                             0                       # TLB misses on read requests
system.cpu.itb.wrAccesses                     1293630                       # TLB accesses on write requests
system.cpu.itb.wrMisses                           175                       # TLB misses on write requests
system.cpu.not_idle_fraction                        1                       # Percentage of non-idle cycles
system.cpu.numCycles                          3826663                       # number of cpu cycles simulated
system.cpu.numWorkItemsCompleted                    0                       # number of work items this cpu completed
system.cpu.numWorkItemsStarted                      0                       # number of work items this cpu started
system.cpu.num_busy_cycles                    3826663                       # Number of busy cycles
system.cpu.num_cc_register_reads              1574328                       # number of times the CC registers were read
system.cpu.num_cc_register_writes              729666                       # number of times the CC registers were written
system.cpu.num_conditional_control_insts       202551                       # number of instructions that are conditional controls
system.cpu.num_fp_alu_accesses                  89568                       # Number of float alu accesses
system.cpu.num_fp_insts                         89568                       # number of float instructions
system.cpu.num_fp_register_reads               142315                       # number of times the floating registers were read
system.cpu.num_fp_register_writes               64073                       # number of times the floating registers were written
system.cpu.num_func_calls                       28269                       # number of times a function call or return occured
system.cpu.num_idle_cycles                          0                       # Number of idle cycles
system.cpu.num_int_alu_accesses               1937429                       # Number of integer alu accesses
system.cpu.num_int_insts                      1937429                       # number of integer instructions
system.cpu.num_int_register_reads             3536038                       # number of times the integer registers were read
system.cpu.num_int_register_writes            1567289                       # number of times the integer registers were written
system.cpu.num_load_insts                      176785                       # Number of load instructions
system.cpu.num_mem_refs                        312546                       # number of memory refs
system.cpu.num_store_insts                     135761                       # Number of store instructions
system.cpu.num_vec_alu_accesses                     0                       # Number of vector alu accesses
system.cpu.num_vec_insts                            0                       # number of vector instructions
system.cpu.num_vec_register_reads                   0                       # number of times the vector registers were read
system.cpu.num_vec_register_writes                  0                       # number of times the vector registers were written
system.cpu.op_class::No_OpClass                 23054      1.14%      1.14% # Class of executed instruction
system.cpu.op_class::IntAlu                   1614565     80.18%     81.33% # Class of executed instruction
system.cpu.op_class::IntMult                     1188      0.06%     81.39% # Class of executed instruction
system.cpu.op_class::IntDiv                      1176      0.06%     81.45% # Class of executed instruction
system.cpu.op_class::FloatAdd                     785      0.04%     81.49% # Class of executed instruction
system.cpu.op_class::FloatCmp                       0      0.00%     81.49% # Class of executed instruction
system.cpu.op_class::FloatCvt                       0      0.00%     81.49% # Class of executed instruction
system.cpu.op_class::FloatMult                      0      0.00%     81.49% # Class of executed instruction
system.cpu.op_class::FloatMultAcc                   0      0.00%     81.49% # Class of executed instruction
system.cpu.op_class::FloatDiv                       0      0.00%     81.49% # Class of executed instruction
system.cpu.op_class::FloatMisc                      0      0.00%     81.49% # Class of executed instruction
system.cpu.op_class::FloatSqrt                      0      0.00%     81.49% # Class of executed instruction
system.cpu.op_class::SimdAdd                     1806      0.09%     81.58% # Class of executed instruction
system.cpu.op_class::SimdAddAcc                     0      0.00%     81.58% # Class of executed instruction
system.cpu.op_class::SimdAlu                    30794      1.53%     83.10% # Class of executed instruction
system.cpu.op_class::SimdCmp                        0      0.00%     83.10% # Class of executed instruction
system.cpu.op_class::SimdCvt                    12148      0.60%     83.71% # Class of executed instruction
system.cpu.op_class::SimdMisc                   14731      0.73%     84.44% # Class of executed instruction
system.cpu.op_class::SimdMult                       0      0.00%     84.44% # Class of executed instruction
system.cpu.op_class::SimdMultAcc                    0      0.00%     84.44% # Class of executed instruction
system.cpu.op_class::SimdShift                    741      0.04%     84.48% # Class of executed instruction
system.cpu.op_class::SimdShiftAcc                   0      0.00%     84.48% # Class of executed instruction
system.cpu.op_class::SimdDiv                        0      0.00%     84.48% # Class of executed instruction
system.cpu.op_class::SimdSqrt                       0      0.00%     84.48% # Class of executed instruction
system.cpu.op_class::SimdFloatAdd                   2      0.00%     84.48% # Class of executed instruction
system.cpu.op_class::SimdFloatAlu                   0      0.00%     84.48% # Class of executed instruction
system.cpu.op_class::SimdFloatCmp                   2      0.00%     84.48% # Class of executed instruction
system.cpu.op_class::SimdFloatCvt                  17      0.00%     84.48% # Class of executed instruction
system.cpu.op_class::SimdFloatDiv                   1      0.00%     84.48% # Class of executed instruction
system.cpu.op_class::SimdFloatMisc                  0      0.00%     84.48% # Class of executed instruction
system.cpu.op_class::SimdFloatMult                 12      0.00%     84.48% # Class of executed instruction
system.cpu.op_class::SimdFloatMultAcc               0      0.00%     84.48% # Class of executed instruction
system.cpu.op_class::SimdFloatSqrt                  0      0.00%     84.48% # Class of executed instruction
system.cpu.op_class::SimdReduceAdd                  0      0.00%     84.48% # Class of executed instruction
system.cpu.op_class::SimdReduceAlu                  0      0.00%     84.48% # Class of executed instruction
system.cpu.op_class::SimdReduceCmp                  0      0.00%     84.48% # Class of executed instruction
system.cpu.op_class::SimdFloatReduceAdd             0      0.00%     84.48% # Class of executed instruction
system.cpu.op_class::SimdFloatReduceCmp             0      0.00%     84.48% # Class of executed instruction
system.cpu.op_class::SimdAes                        0      0.00%     84.48% # Class of executed instruction
system.cpu.op_class::SimdAesMix                     0      0.00%     84.48% # Class of executed instruction
system.cpu.op_class::SimdSha1Hash                   0      0.00%     84.48% # Class of executed instruction
system.cpu.op_class::SimdSha1Hash2                  0      0.00%     84.48% # Class of executed instruction
system.cpu.op_class::SimdSha256Hash                 0      0.00%     84.48% # Class of executed instruction
system.cpu.op_class::SimdSha256Hash2                0      0.00%     84.48% # Class of executed instruction
system.cpu.op_class::SimdShaSigma2                  0      0.00%     84.48% # Class of executed instruction
system.cpu.op_class::SimdShaSigma3                  0      0.00%     84.48% # Class of executed instruction
system.cpu.op_class::SimdPredAlu                    0      0.00%     84.48% # Class of executed instruction
system.cpu.op_class::MemRead                   165265      8.21%     92.69% # Class of executed instruction
system.cpu.op_class::MemWrite                  120158      5.97%     98.65% # Class of executed instruction
system.cpu.op_class::FloatMemRead               11520      0.57%     99.23% # Class of executed instruction
system.cpu.op_class::FloatMemWrite              15603      0.77%    100.00% # Class of executed instruction
system.cpu.op_class::IprAccess                      0      0.00%    100.00% # Class of executed instruction
system.cpu.op_class::InstPrefetch                   0      0.00%    100.00% # Class of executed instruction
system.cpu.op_class::total                    2013568                       # Class of executed instruction
system.cpu.workload.numSyscalls                    31                       # Number of system calls
system.dynamic_cache.flushTicks                     0                       # Ticks taken to flush
system.dynamic_cache.numFlushes                     0                       # Number of Flushes Taken
system.cache_small.demand_hits::.cpu.inst         2743                       # number of demand (read+write) hits
system.cache_small.demand_hits::.cpu.data         1895                       # number of demand (read+write) hits
system.cache_small.demand_hits::total            4638                       # number of demand (read+write) hits
system.cache_small.overall_hits::.cpu.inst         2743                       # number of overall hits
system.cache_small.overall_hits::.cpu.data         1895                       # number of overall hits
system.cache_small.overall_hits::total           4638                       # number of overall hits
system.cache_small.demand_misses::.cpu.inst         1565                       # number of demand (read+write) misses
system.cache_small.demand_misses::.cpu.data         4449                       # number of demand (read+write) misses
system.cache_small.demand_misses::total          6014                       # number of demand (read+write) misses
system.cache_small.overall_misses::.cpu.inst         1565                       # number of overall misses
system.cache_small.overall_misses::.cpu.data         4449                       # number of overall misses
system.cache_small.overall_misses::total         6014                       # number of overall misses
system.cache_small.demand_miss_latency::.cpu.inst     95348000                       # number of demand (read+write) miss cycles
system.cache_small.demand_miss_latency::.cpu.data    263408000                       # number of demand (read+write) miss cycles
system.cache_small.demand_miss_latency::total    358756000                       # number of demand (read+write) miss cycles
system.cache_small.overall_miss_latency::.cpu.inst     95348000                       # number of overall miss cycles
system.cache_small.overall_miss_latency::.cpu.data    263408000                       # number of overall miss cycles
system.cache_small.overall_miss_latency::total    358756000                       # number of overall miss cycles
system.cache_small.demand_accesses::.cpu.inst         4308                       # number of demand (read+write) accesses
system.cache_small.demand_accesses::.cpu.data         6344                       # number of demand (read+write) accesses
system.cache_small.demand_accesses::total        10652                       # number of demand (read+write) accesses
system.cache_small.overall_accesses::.cpu.inst         4308                       # number of overall (read+write) accesses
system.cache_small.overall_accesses::.cpu.data         6344                       # number of overall (read+write) accesses
system.cache_small.overall_accesses::total        10652                       # number of overall (read+write) accesses
system.cache_small.demand_miss_rate::.cpu.inst     0.363278                       # miss rate for demand accesses
system.cache_small.demand_miss_rate::.cpu.data     0.701293                       # miss rate for demand accesses
system.cache_small.demand_miss_rate::total     0.564589                       # miss rate for demand accesses
system.cache_small.overall_miss_rate::.cpu.inst     0.363278                       # miss rate for overall accesses
system.cache_small.overall_miss_rate::.cpu.data     0.701293                       # miss rate for overall accesses
system.cache_small.overall_miss_rate::total     0.564589                       # miss rate for overall accesses
system.cache_small.demand_avg_miss_latency::.cpu.inst 60925.239617                       # average overall miss latency
system.cache_small.demand_avg_miss_latency::.cpu.data 59206.113733                       # average overall miss latency
system.cache_small.demand_avg_miss_latency::total 59653.475224                       # average overall miss latency
system.cache_small.overall_avg_miss_latency::.cpu.inst 60925.239617                       # average overall miss latency
system.cache_small.overall_avg_miss_latency::.cpu.data 59206.113733                       # average overall miss latency
system.cache_small.overall_avg_miss_latency::total 59653.475224                       # average overall miss latency
system.cache_small.blocked_cycles::no_mshrs            0                       # number of cycles access was blocked
system.cache_small.blocked_cycles::no_targets            0                       # number of cycles access was blocked
system.cache_small.blocked::no_mshrs                0                       # number of cycles access was blocked
system.cache_small.blocked::no_targets              0                       # number of cycles access was blocked
system.cache_small.avg_blocked_cycles::no_mshrs          nan                       # average number of cycles each access was blocked
system.cache_small.avg_blocked_cycles::no_targets          nan                       # average number of cycles each access was blocked
system.cache_small.demand_mshr_misses::.cpu.inst         1565                       # number of demand (read+write) MSHR misses
system.cache_small.demand_mshr_misses::.cpu.data         4449                       # number of demand (read+write) MSHR misses
system.cache_small.demand_mshr_misses::total         6014                       # number of demand (read+write) MSHR misses
system.cache_small.overall_mshr_misses::.cpu.inst         1565                       # number of overall MSHR misses
system.cache_small.overall_mshr_misses::.cpu.data         4449                       # number of overall MSHR misses
system.cache_small.overall_mshr_misses::total         6014                       # number of overall MSHR misses
system.cache_small.demand_mshr_miss_latency::.cpu.inst     92218000                       # number of demand (read+write) MSHR miss cycles
system.cache_small.demand_mshr_miss_latency::.cpu.data    254510000                       # number of demand (read+write) MSHR miss cycles
system.cache_small.demand_mshr_miss_latency::total    346728000                       # number of demand (read+write) MSHR miss cycles
system.cache_small.overall_mshr_miss_latency::.cpu.inst     92218000                       # number of overall MSHR miss cycles
system.cache_small.overall_mshr_miss_latency::.cpu.data    254510000                       # number of overall MSHR miss cycles
system.cache_small.overall_mshr_miss_latency::total    346728000                       # number of overall MSHR miss cycles
system.cache_small.demand_mshr_miss_rate::.cpu.inst     0.363278                       # mshr miss rate for demand accesses
system.cache_small.demand_mshr_miss_rate::.cpu.data     0.701293                       # mshr miss rate for demand accesses
system.cache_small.demand_mshr_miss_rate::total     0.564589                       # mshr miss rate for demand accesses
system.cache_small.overall_mshr_miss_rate::.cpu.inst     0.363278                       # mshr miss rate for overall accesses
system.cache_small.overall_mshr_miss_rate::.cpu.data     0.701293                       # mshr miss rate for overall accesses
system.cache_small.overall_mshr_miss_rate::total     0.564589                       # mshr miss rate for overall accesses
system.cache_small.demand_avg_mshr_miss_latency::.cpu.inst 58925.239617                       # average overall mshr miss latency
system.cache_small.demand_avg_mshr_miss_latency::.cpu.data 57206.113733                       # average overall mshr miss latency
system.cache_small.demand_avg_mshr_miss_latency::total 57653.475224                       # average overall mshr miss latency
system.cache_small.overall_avg_mshr_miss_latency::.cpu.inst 58925.239617                       # average overall mshr miss latency
system.cache_small.overall_avg_mshr_miss_latency::.cpu.data 57206.113733                       # average overall mshr miss latency
system.cache_small.overall_avg_mshr_miss_latency::total 57653.475224                       # average overall mshr miss latency
system.cache_small.replacements                    11                       # number of replacements
system.cache_small.ReadReq_hits::.cpu.inst         2743                       # number of ReadReq hits
system.cache_small.ReadReq_hits::.cpu.data         1895                       # number of ReadReq hits
system.cache_small.ReadReq_hits::total           4638                       # number of ReadReq hits
system.cache_small.ReadReq_misses::.cpu.inst         1565                       # number of ReadReq misses
system.cache_small.ReadReq_misses::.cpu.data         4449                       # number of ReadReq misses
system.cache_small.ReadReq_misses::total         6014                       # number of ReadReq misses
system.cache_small.ReadReq_miss_latency::.cpu.inst     95348000                       # number of ReadReq miss cycles
system.cache_small.ReadReq_miss_latency::.cpu.data    263408000                       # number of ReadReq miss cycles
system.cache_small.ReadReq_miss_latency::total    358756000                       # number of ReadReq miss cycles
system.cache_small.ReadReq_accesses::.cpu.inst         4308                       # number of ReadReq accesses(hits+misses)
system.cache_small.ReadReq_accesses::.cpu.data         6344                       # number of ReadReq accesses(hits+misses)
system.cache_small.ReadReq_accesses::total        10652                       # number of ReadReq accesses(hits+misses)
system.cache_small.ReadReq_miss_rate::.cpu.inst     0.363278                       # miss rate for ReadReq accesses
system.cache_small.ReadReq_miss_rate::.cpu.data     0.701293                       # miss rate for ReadReq accesses
system.cache_small.ReadReq_miss_rate::total     0.564589                       # miss rate for ReadReq accesses
system.cache_small.ReadReq_avg_miss_latency::.cpu.inst 60925.239617                       # average ReadReq miss latency
system.cache_small.ReadReq_avg_miss_latency::.cpu.data 59206.113733                       # average ReadReq miss latency
system.cache_small.ReadReq_avg_miss_latency::total 59653.475224                       # average ReadReq miss latency
system.cache_small.ReadReq_mshr_misses::.cpu.inst         1565                       # number of ReadReq MSHR misses
system.cache_small.ReadReq_mshr_misses::.cpu.data         4449                       # number of ReadReq MSHR misses
system.cache_small.ReadReq_mshr_misses::total         6014                       # number of ReadReq MSHR misses
system.cache_small.ReadReq_mshr_miss_latency::.cpu.inst     92218000                       # number of ReadReq MSHR miss cycles
system.cache_small.ReadReq_mshr_miss_latency::.cpu.data    254510000                       # number of ReadReq MSHR miss cycles
system.cache_small.ReadReq_mshr_miss_latency::total    346728000                       # number of ReadReq MSHR miss cycles
system.cache_small.ReadReq_mshr_miss_rate::.cpu.inst     0.363278                       # mshr miss rate for ReadReq accesses
system.cache_small.ReadReq_mshr_miss_rate::.cpu.data     0.701293                       # mshr miss rate for ReadReq accesses
system.cache_small.ReadReq_mshr_miss_rate::total     0.564589                       # mshr miss rate for ReadReq accesses
system.cache_small.ReadReq_avg_mshr_miss_latency::.cpu.inst 58925.239617                       # average ReadReq mshr miss latency
system.cache_small.ReadReq_avg_mshr_miss_latency::.cpu.data 57206.113733                       # average ReadReq mshr miss latency
system.cache_small.ReadReq_avg_mshr_miss_latency::total 57653.475224                       # average ReadReq mshr miss latency
system.cache_small.WritebackDirty_hits::.writebacks         4656                       # number of WritebackDirty hits
system.cache_small.WritebackDirty_hits::total         4656                       # number of WritebackDirty hits
system.cache_small.WritebackDirty_accesses::.writebacks         4656                       # number of WritebackDirty accesses(hits+misses)
system.cache_small.WritebackDirty_accesses::total         4656                       # number of WritebackDirty accesses(hits+misses)
system.cache_small.power_state.pwrStateResidencyTicks::UNDEFINED   3826674000                       # Cumulative time (in ticks) in various power states
system.cache_small.tags.tagsinuse         4151.096522                       # Cycle average of tags in use
system.cache_small.tags.total_refs                 14                       # Total number of references to valid blocks.
system.cache_small.tags.sampled_refs               11                       # Sample count of references to valid blocks.
system.cache_small.tags.avg_refs             1.272727                       # Average number of references to valid blocks.
system.cache_small.tags.warmup_cycle            76000                       # Cycle when the warmup percentage was hit.
system.cache_small.tags.occ_blocks::.cpu.inst   970.892173                       # Average occupied blocks per requestor
system.cache_small.tags.occ_blocks::.cpu.data  3180.204349                       # Average occupied blocks per requestor
system.cache_small.tags.occ_percent::.cpu.inst     0.007407                       # Average percentage of cache occupancy
system.cache_small.tags.occ_percent::.cpu.data     0.024263                       # Average percentage of cache occupancy
system.cache_small.tags.occ_percent::total     0.031670                       # Average percentage of cache occupancy
system.cache_small.tags.occ_task_id_blocks::1024         6003                       # Occupied blocks per task id
system.cache_small.tags.age_task_id_blocks_1024::2          227                       # Occupied blocks per task id
system.cache_small.tags.age_task_id_blocks_1024::3         5776                       # Occupied blocks per task id
system.cache_small.tags.occ_task_id_percent::1024     0.045799                       # Percentage of cache occupancy per task id
system.cache_small.tags.tag_accesses            21322                       # Number of tag accesses
system.cache_small.tags.data_accesses           21322                       # Number of data accesses
system.cache_small.tags.power_state.pwrStateResidencyTicks::UNDEFINED   3826674000                       # Cumulative time (in ticks) in various power states
system.icache.demand_hits::.cpu.inst          1286376                       # number of demand (read+write) hits
system.icache.demand_hits::total              1286376                       # number of demand (read+write) hits
system.icache.overall_hits::.cpu.inst         1286376                       # number of overall hits
system.icache.overall_hits::total             1286376                       # number of overall hits
system.icache.demand_misses::.cpu.inst           7254                       # number of demand (read+write) misses
system.icache.demand_misses::total               7254                       # number of demand (read+write) misses
system.icache.overall_misses::.cpu.inst          7254                       # number of overall misses
system.icache.overall_misses::total              7254                       # number of overall misses
system.icache.demand_miss_latency::.cpu.inst    218498000                       # number of demand (read+write) miss cycles
system.icache.demand_miss_latency::total    218498000                       # number of demand (read+write) miss cycles
system.icache.overall_miss_latency::.cpu.inst    218498000                       # number of overall miss cycles
system.icache.overall_miss_latency::total    218498000                       # number of overall miss cycles
system.icache.demand_accesses::.cpu.inst      1293630                       # number of demand (read+write) accesses
system.icache.demand_accesses::total          1293630                       # number of demand (read+write) accesses
system.icache.overall_accesses::.cpu.inst      1293630                       # number of overall (read+write) accesses
system.icache.overall_accesses::total         1293630                       # number of overall (read+write) accesses
system.icache.demand_miss_rate::.cpu.inst     0.005607                       # miss rate for demand accesses
system.icache.demand_miss_rate::total        0.005607                       # miss rate for demand accesses
system.icache.overall_miss_rate::.cpu.inst     0.005607                       # miss rate for overall accesses
system.icache.overall_miss_rate::total       0.005607                       # miss rate for overall accesses
system.icache.demand_avg_miss_latency::.cpu.inst 30121.036669                       # average overall miss latency
system.icache.demand_avg_miss_latency::total 30121.036669                       # average overall miss latency
system.icache.overall_avg_miss_latency::.cpu.inst 30121.036669                       # average overall miss latency
system.icache.overall_avg_miss_latency::total 30121.036669                       # average overall miss latency
system.icache.blocked_cycles::no_mshrs              0                       # number of cycles access was blocked
system.icache.blocked_cycles::no_targets            0                       # number of cycles access was blocked
system.icache.blocked::no_mshrs                     0                       # number of cycles access was blocked
system.icache.blocked::no_targets                   0                       # number of cycles access was blocked
system.icache.avg_blocked_cycles::no_mshrs          nan                       # average number of cycles each access was blocked
system.icache.avg_blocked_cycles::no_targets          nan                       # average number of cycles each access was blocked
system.icache.demand_mshr_misses::.cpu.inst         7254                       # number of demand (read+write) MSHR misses
system.icache.demand_mshr_misses::total          7254                       # number of demand (read+write) MSHR misses
system.icache.overall_mshr_misses::.cpu.inst         7254                       # number of overall MSHR misses
system.icache.overall_mshr_misses::total         7254                       # number of overall MSHR misses
system.icache.demand_mshr_miss_latency::.cpu.inst    203990000                       # number of demand (read+write) MSHR miss cycles
system.icache.demand_mshr_miss_latency::total    203990000                       # number of demand (read+write) MSHR miss cycles
system.icache.overall_mshr_miss_latency::.cpu.inst    203990000                       # number of overall MSHR miss cycles
system.icache.overall_mshr_miss_latency::total    203990000                       # number of overall MSHR miss cycles
system.icache.demand_mshr_miss_rate::.cpu.inst     0.005607                       # mshr miss rate for demand accesses
system.icache.demand_mshr_miss_rate::total     0.005607                       # mshr miss rate for demand accesses
system.icache.overall_mshr_miss_rate::.cpu.inst     0.005607                       # mshr miss rate for overall accesses
system.icache.overall_mshr_miss_rate::total     0.005607                       # mshr miss rate for overall accesses
system.icache.demand_avg_mshr_miss_latency::.cpu.inst 28121.036669                       # average overall mshr miss latency
system.icache.demand_avg_mshr_miss_latency::total 28121.036669                       # average overall mshr miss latency
system.icache.overall_avg_mshr_miss_latency::.cpu.inst 28121.036669                       # average overall mshr miss latency
system.icache.overall_avg_mshr_miss_latency::total 28121.036669                       # average overall mshr miss latency
system.icache.replacements                       6998                       # number of replacements
system.icache.ReadReq_hits::.cpu.inst         1286376                       # number of ReadReq hits
system.icache.ReadReq_hits::total             1286376                       # number of ReadReq hits
system.icache.ReadReq_misses::.cpu.inst          7254                       # number of ReadReq misses
system.icache.ReadReq_misses::total              7254                       # number of ReadReq misses
system.icache.ReadReq_miss_latency::.cpu.inst    218498000                       # number of ReadReq miss cycles
system.icache.ReadReq_miss_latency::total    218498000                       # number of ReadReq miss cycles
system.icache.ReadReq_accesses::.cpu.inst      1293630                       # number of ReadReq accesses(hits+misses)
system.icache.ReadReq_accesses::total         1293630                       # number of ReadReq accesses(hits+misses)
system.icache.ReadReq_miss_rate::.cpu.inst     0.005607                       # miss rate for ReadReq accesses
system.icache.ReadReq_miss_rate::total       0.005607                       # miss rate for ReadReq accesses
system.icache.ReadReq_avg_miss_latency::.cpu.inst 30121.036669                       # average ReadReq miss latency
system.icache.ReadReq_avg_miss_latency::total 30121.036669                       # average ReadReq miss latency
system.icache.ReadReq_mshr_misses::.cpu.inst         7254                       # number of ReadReq MSHR misses
system.icache.ReadReq_mshr_misses::total         7254                       # number of ReadReq MSHR misses
system.icache.ReadReq_mshr_miss_latency::.cpu.inst    203990000                       # number of ReadReq MSHR miss cycles
system.icache.ReadReq_mshr_miss_latency::total    203990000                       # number of ReadReq MSHR miss cycles
system.icache.ReadReq_mshr_miss_rate::.cpu.inst     0.005607                       # mshr miss rate for ReadReq accesses
system.icache.ReadReq_mshr_miss_rate::total     0.005607                       # mshr miss rate for ReadReq accesses
system.icache.ReadReq_avg_mshr_miss_latency::.cpu.inst 28121.036669                       # average ReadReq mshr miss latency
system.icache.ReadReq_avg_mshr_miss_latency::total 28121.036669                       # average ReadReq mshr miss latency
system.icache.power_state.pwrStateResidencyTicks::UNDEFINED   3826674000                       # Cumulative time (in ticks) in various power states
system.icache.tags.tagsinuse               242.626683                       # Cycle average of tags in use
system.icache.tags.total_refs                  824060                       # Total number of references to valid blocks.
system.icache.tags.sampled_refs                  6998                       # Sample count of references to valid blocks.
system.icache.tags.avg_refs                117.756502                       # Average number of references to valid blocks.
system.icache.tags.warmup_cycle                 82000                       # Cycle when the warmup percentage was hit.
system.icache.tags.occ_blocks::.cpu.inst   242.626683                       # Average occupied blocks per requestor
system.icache.tags.occ_percent::.cpu.inst     0.947760                       # Average percentage of cache occupancy
system.icache.tags.occ_percent::total        0.947760                       # Average percentage of cache occupancy
system.icache.tags.occ_task_id_blocks::1024          256                       # Occupied blocks per task id
system.icache.tags.age_task_id_blocks_1024::2           57                       # Occupied blocks per task id
system.icache.tags.age_task_id_blocks_1024::3          199                       # Occupied blocks per task id
system.icache.tags.occ_task_id_percent::1024            1                       # Percentage of cache occupancy per task id
system.icache.tags.tag_accesses               1300884                       # Number of tag accesses
system.icache.tags.data_accesses              1300884                       # Number of data accesses
system.icache.tags.power_state.pwrStateResidencyTicks::UNDEFINED   3826674000                       # Cumulative time (in ticks) in various power states
system.membus.trans_dist::ReadReq                6014                       # Transaction distribution
system.membus.trans_dist::ReadResp               6014                       # Transaction distribution
system.membus.pkt_count_system.cache_small.mem_side::system.mem_ctrl.port        12028                       # Packet count per connected master and slave (bytes)
system.membus.pkt_count_system.cache_small.mem_side::total        12028                       # Packet count per connected master and slave (bytes)
system.membus.pkt_count::total                  12028                       # Packet count per connected master and slave (bytes)
system.membus.pkt_size_system.cache_small.mem_side::system.mem_ctrl.port       384896                       # Cumulative packet size per connected master and slave (bytes)
system.membus.pkt_size_system.cache_small.mem_side::total       384896                       # Cumulative packet size per connected master and slave (bytes)
system.membus.pkt_size::total                  384896                       # Cumulative packet size per connected master and slave (bytes)
system.membus.reqLayer2.occupancy             6014000                       # Layer occupancy (ticks)
system.membus.reqLayer2.utilization               0.2                       # Layer utilization (%)
system.membus.respLayer1.occupancy           32034000                       # Layer occupancy (ticks)
system.membus.respLayer1.utilization              0.8                       # Layer utilization (%)
system.membus.power_state.pwrStateResidencyTicks::UNDEFINED   3826674000                       # Cumulative time (in ticks) in various power states
system.mem_ctrl.bytes_read::.cpu.inst          100160                       # Number of bytes read from this memory
system.mem_ctrl.bytes_read::.cpu.data          284736                       # Number of bytes read from this memory
system.mem_ctrl.bytes_read::total              384896                       # Number of bytes read from this memory
system.mem_ctrl.bytes_inst_read::.cpu.inst       100160                       # Number of instructions bytes read from this memory
system.mem_ctrl.bytes_inst_read::total         100160                       # Number of instructions bytes read from this memory
system.mem_ctrl.num_reads::.cpu.inst             1565                       # Number of read requests responded to by this memory
system.mem_ctrl.num_reads::.cpu.data             4449                       # Number of read requests responded to by this memory
system.mem_ctrl.num_reads::total                 6014                       # Number of read requests responded to by this memory
system.mem_ctrl.bw_read::.cpu.inst           26174166                       # Total read bandwidth from this memory (bytes/s)
system.mem_ctrl.bw_read::.cpu.data           74408220                       # Total read bandwidth from this memory (bytes/s)
system.mem_ctrl.bw_read::total              100582386                       # Total read bandwidth from this memory (bytes/s)
system.mem_ctrl.bw_inst_read::.cpu.inst      26174166                       # Instruction read bandwidth from this memory (bytes/s)
system.mem_ctrl.bw_inst_read::total          26174166                       # Instruction read bandwidth from this memory (bytes/s)
system.mem_ctrl.bw_total::.cpu.inst          26174166                       # Total bandwidth to/from this memory (bytes/s)
system.mem_ctrl.bw_total::.cpu.data          74408220                       # Total bandwidth to/from this memory (bytes/s)
system.mem_ctrl.bw_total::total             100582386                       # Total bandwidth to/from this memory (bytes/s)
system.mem_ctrl.avgPriority_.cpu.inst::samples      1565.00                       # Average QoS priority value for accepted requests
system.mem_ctrl.avgPriority_.cpu.data::samples      4449.00                       # Average QoS priority value for accepted requests
system.mem_ctrl.priorityMinLatency       0.000000018750                       # per QoS priority minimum request to response latency (s)
system.mem_ctrl.priorityMaxLatency       0.000000574500                       # per QoS priority maximum request to response latency (s)
system.mem_ctrl.numReadWriteTurnArounds             0                       # Number of turnarounds from READ to WRITE
system.mem_ctrl.numWriteReadTurnArounds             0                       # Number of turnarounds from WRITE to READ
system.mem_ctrl.numStayReadState                13009                       # Number of times bus staying in READ state
system.mem_ctrl.numStayWriteState                   0                       # Number of times bus staying in WRITE state
system.mem_ctrl.readReqs                         6014                       # Number of read requests accepted
system.mem_ctrl.writeReqs                           0                       # Number of write requests accepted
system.mem_ctrl.readBursts                       6014                       # Number of DRAM read bursts, including those serviced by the write queue
system.mem_ctrl.writeBursts                         0                       # Number of DRAM write bursts, including those merged in the write queue
system.mem_ctrl.servicedByWrQ                       0                       # Number of DRAM read bursts serviced by the write queue
system.mem_ctrl.mergedWrBursts                      0                       # Number of DRAM write bursts merged with an existing one
system.mem_ctrl.neitherReadNorWriteReqs             0                       # Number of requests that are neither read nor write
system.mem_ctrl.perBankRdBursts::0                583                       # Per bank write bursts
system.mem_ctrl.perBankRdBursts::1                633                       # Per bank write bursts
system.mem_ctrl.perBankRdBursts::2                290                       # Per bank write bursts
system.mem_ctrl.perBankRdBursts::3                162                       # Per bank write bursts
system.mem_ctrl.perBankRdBursts::4                344                       # Per bank write bursts
system.mem_ctrl.perBankRdBursts::5                451                       # Per bank write bursts
system.mem_ctrl.perBankRdBursts::6                386                       # Per bank write bursts
system.mem_ctrl.perBankRdBursts::7                276                       # Per bank write bursts
system.mem_ctrl.perBankRdBursts::8                357                       # Per bank write bursts
system.mem_ctrl.perBankRdBursts::9                351                       # Per bank write bursts
system.mem_ctrl.perBankRdBursts::10               301                       # Per bank write bursts
system.mem_ctrl.perBankRdBursts::11               432                       # Per bank write bursts
system.mem_ctrl.perBankRdBursts::12               387                       # Per bank write bursts
system.mem_ctrl.perBankRdBursts::13               199                       # Per bank write bursts
system.mem_ctrl.perBankRdBursts::14               388                       # Per bank write bursts
system.mem_ctrl.perBankRdBursts::15               474                       # Per bank write bursts
system.mem_ctrl.perBankWrBursts::0                  0                       # Per bank write bursts
system.mem_ctrl.perBankWrBursts::1                  0                       # Per bank write bursts
system.mem_ctrl.perBankWrBursts::2                  0                       # Per bank write bursts
system.mem_ctrl.perBankWrBursts::3                  0                       # Per bank write bursts
system.mem_ctrl.perBankWrBursts::4                  0                       # Per bank write bursts
system.mem_ctrl.perBankWrBursts::5                  0                       # Per bank write bursts
system.mem_ctrl.perBankWrBursts::6                  0                       # Per bank write bursts
system.mem_ctrl.perBankWrBursts::7                  0                       # Per bank write bursts
system.mem_ctrl.perBankWrBursts::8                  0                       # Per bank write bursts
system.mem_ctrl.perBankWrBursts::9                  0                       # Per bank write bursts
system.mem_ctrl.perBankWrBursts::10                 0                       # Per bank write bursts
system.mem_ctrl.perBankWrBursts::11                 0                       # Per bank write bursts
system.mem_ctrl.perBankWrBursts::12                 0                       # Per bank write bursts
system.mem_ctrl.perBankWrBursts::13                 0                       # Per bank write bursts
system.mem_ctrl.perBankWrBursts::14                 0                       # Per bank write bursts
system.mem_ctrl.perBankWrBursts::15                 0                       # Per bank write bursts
system.mem_ctrl.avgRdQLen                        1.00                       # Average read queue length when enqueuing
system.mem_ctrl.avgWrQLen                        0.00                       # Average write queue length when enqueuing
system.mem_ctrl.totQLat                      45566750                       # Total ticks spent queuing
system.mem_ctrl.totBusLat                    30070000                       # Total ticks spent in databus transfers
system.mem_ctrl.totMemAccLat                158329250                       # Total ticks spent from burst creation until serviced by the DRAM
system.mem_ctrl.avgQLat                       7576.78                       # Average queueing delay per DRAM burst
system.mem_ctrl.avgBusLat                     5000.00                       # Average bus latency per DRAM burst
system.mem_ctrl.avgMemAccLat                 26326.78                       # Average memory access latency per DRAM burst
system.mem_ctrl.numRdRetry                          0                       # Number of times read queue was full causing retry
system.mem_ctrl.numWrRetry                          0                       # Number of times write queue was full causing retry
system.mem_ctrl.readRowHits                      4459                       # Number of row buffer hits during reads
system.mem_ctrl.writeRowHits                        0                       # Number of row buffer hits during writes
system.mem_ctrl.readRowHitRate                  74.14                       # Row buffer hit rate for reads
system.mem_ctrl.writeRowHitRate                   nan                       # Row buffer hit rate for writes
system.mem_ctrl.readPktSize::0                      0                       # Read request sizes (log2)
system.mem_ctrl.readPktSize::1                      0                       # Read request sizes (log2)
system.mem_ctrl.readPktSize::2                      0                       # Read request sizes (log2)
system.mem_ctrl.readPktSize::3                      0                       # Read request sizes (log2)
system.mem_ctrl.readPktSize::4                      0                       # Read request sizes (log2)
system.mem_ctrl.readPktSize::5                      0                       # Read request sizes (log2)
system.mem_ctrl.readPktSize::6                   6014                       # Read request sizes (log2)
system.mem_ctrl.writePktSize::0                     0                       # Write request sizes (log2)
system.mem_ctrl.writePktSize::1                     0                       # Write request sizes (log2)
system.mem_ctrl.writePktSize::2                     0                       # Write request sizes (log2)
system.mem_ctrl.writePktSize::3                     0                       # Write request sizes (log2)
system.mem_ctrl.writePktSize::4                     0                       # Write request sizes (log2)
system.mem_ctrl.writePktSize::5                     0                       # Write request sizes (log2)
system.mem_ctrl.writePktSize::6                     0                       # Write request sizes (log2)
system.mem_ctrl.rdQLenPdf::0                     6013                       # What read queue length does an incoming req see
system.mem_ctrl.rdQLenPdf::1                        1                       # What read queue length does an incoming req see
system.mem_ctrl.rdQLenPdf::2                        0                       # What read queue length does an incoming req see
system.mem_ctrl.rdQLenPdf::3                        0                       # What read queue length does an incoming req see
system.mem_ctrl.rdQLenPdf::4                        0                       # What read queue length does an incoming req see
system.mem_ctrl.rdQLenPdf::5                        0                       # What read queue length does an incoming req see
system.mem_ctrl.rdQLenPdf::6                        0                       # What read queue length does an incoming req see
system.mem_ctrl.rdQLenPdf::7                        0                       # What read queue length does an incoming req see
system.mem_ctrl.rdQLenPdf::8                        0                       # What read queue length does an incoming req see
system.mem_ctrl.rdQLenPdf::9                        0                       # What read queue length does an incoming req see
system.mem_ctrl.rdQLenPdf::10                       0                       # What read queue length does an incoming req see
system.mem_ctrl.rdQLenPdf::11                       0                       # What read queue length does an incoming req see
system.mem_ctrl.rdQLenPdf::12                       0                       # What read queue length does an incoming req see
system.mem_ctrl.rdQLenPdf::13                       0                       # What read queue length does an incoming req see
system.mem_ctrl.rdQLenPdf::14                       0                       # What read queue length does an incoming req see
system.mem_ctrl.rdQLenPdf::15                       0                       # What read queue length does an incoming req see
system.mem_ctrl.rdQLenPdf::16                       0                       # What read queue length does an incoming req see
system.mem_ctrl.rdQLenPdf::17                       0                       # What read queue length does an incoming req see
system.mem_ctrl.rdQLenPdf::18                       0                       # What read queue length does an incoming req see
system.mem_ctrl.rdQLenPdf::19                       0                       # What read queue length does an incoming req see
system.mem_ctrl.rdQLenPdf::20                       0                       # What read queue length does an incoming req see
system.mem_ctrl.rdQLenPdf::21                       0                       # What read queue length does an incoming req see
system.mem_ctrl.rdQLenPdf::22                       0                       # What read queue length does an incoming req see
system.mem_ctrl.rdQLenPdf::23                       0                       # What read queue length does an incoming req see
system.mem_ctrl.rdQLenPdf::24                       0                       # What read queue length does an incoming req see
system.mem_ctrl.rdQLenPdf::25                       0                       # What read queue length does an incoming req see
system.mem_ctrl.rdQLenPdf::26                       0                       # What read queue length does an incoming req see
system.mem_ctrl.rdQLenPdf::27                       0                       # What read queue length does an incoming req see
system.mem_ctrl.rdQLenPdf::28                       0                       # What read queue length does an incoming req see
system.mem_ctrl.rdQLenPdf::29                       0                       # What read queue length does an incoming req see
system.mem_ctrl.rdQLenPdf::30                       0                       # What read queue length does an incoming req see
system.mem_ctrl.rdQLenPdf::31                       0                       # What read queue length does an incoming req see
system.mem_ctrl.wrQLenPdf::0                        0                       # What write queue length does an incoming req see
system.mem_ctrl.wrQLenPdf::1                        0                       # What write queue length does an incoming req see
system.mem_ctrl.wrQLenPdf::2                        0                       # What write queue length does an incoming req see
system.mem_ctrl.wrQLenPdf::3                        0                       # What write queue length does an incoming req see
system.mem_ctrl.wrQLenPdf::4                        0                       # What write queue length does an incoming req see
system.mem_ctrl.wrQLenPdf::5                        0                       # What write queue length does an incoming req see
system.mem_ctrl.wrQLenPdf::6                        0                       # What write queue length does an incoming req see
system.mem_ctrl.wrQLenPdf::7                        0                       # What write queue length does an incoming req see
system.mem_ctrl.wrQLenPdf::8                        0                       # What write queue length does an incoming req see
system.mem_ctrl.wrQLenPdf::9                        0                       # What write queue length does an incoming req see
system.mem_ctrl.wrQLenPdf::10                       0                       # What write queue length does an incoming req see
system.mem_ctrl.wrQLenPdf::11                       0                       # What write queue length does an incoming req see
system.mem_ctrl.wrQLenPdf::12                       0                       # What write queue length does an incoming req see
system.mem_ctrl.wrQLenPdf::13                       0                       # What write queue length does an incoming req see
system.mem_ctrl.wrQLenPdf::14                       0                       # What write queue length does an incoming req see
system.mem_ctrl.wrQLenPdf::15                       0                       # What write queue length does an incoming req see
system.mem_ctrl.wrQLenPdf::16                       0                       # What write queue length does an incoming req see
system.mem_ctrl.wrQLenPdf::17                       0                       # What write queue length does an incoming req see
system.mem_ctrl.wrQLenPdf::18                       0                       # What write queue length does an incoming req see
system.mem_ctrl.wrQLenPdf::19                       0                       # What write queue length does an incoming req see
system.mem_ctrl.wrQLenPdf::20                       0                       # What write queue length does an incoming req see
system.mem_ctrl.wrQLenPdf::21                       0                       # What write queue length does an incoming req see
system.mem_ctrl.wrQLenPdf::22                       0                       # What write queue length does an incoming req see
system.mem_ctrl.wrQLenPdf::23                       0                       # What write queue length does an incoming req see
system.mem_ctrl.wrQLenPdf::24                       0                       # What write queue length does an incoming req see
system.mem_ctrl.wrQLenPdf::25                       0                       # What write queue length does an incoming req see
system.mem_ctrl.wrQLenPdf::26                       0                       # What write queue length does an incoming req see
system.mem_ctrl.wrQLenPdf::27                       0                       # What write queue length does an incoming req see
system.mem_ctrl.wrQLenPdf::28                       0                       # What write queue length does an incoming req see
system.mem_ctrl.wrQLenPdf::29                       0                       # What write queue length does an incoming req see
system.mem_ctrl.wrQLenPdf::30                       0                       # What write queue length does an incoming req see
system.mem_ctrl.wrQLenPdf::31                       0                       # What write queue length does an incoming req see
system.mem_ctrl.wrQLenPdf::32                       0                       # What write queue length does an incoming req see
system.mem_ctrl.wrQLenPdf::33                       0                       # What write queue length does an incoming req see
system.mem_ctrl.wrQLenPdf::34                       0                       # What write queue length does an incoming req see
system.mem_ctrl.wrQLenPdf::35                       0                       # What write queue length does an incoming req see
system.mem_ctrl.wrQLenPdf::36                       0                       # What write queue length does an incoming req see
system.mem_ctrl.wrQLenPdf::37                       0                       # What write queue length does an incoming req see
system.mem_ctrl.wrQLenPdf::38                       0                       # What write queue length does an incoming req see
system.mem_ctrl.wrQLenPdf::39                       0                       # What write queue length does an incoming req see
system.mem_ctrl.wrQLenPdf::40                       0                       # What write queue length does an incoming req see
system.mem_ctrl.wrQLenPdf::41                       0                       # What write queue length does an incoming req see
system.mem_ctrl.wrQLenPdf::42                       0                       # What write queue length does an incoming req see
system.mem_ctrl.wrQLenPdf::43                       0                       # What write queue length does an incoming req see
system.mem_ctrl.wrQLenPdf::44                       0                       # What write queue length does an incoming req see
system.mem_ctrl.wrQLenPdf::45                       0                       # What write queue length does an incoming req see
system.mem_ctrl.wrQLenPdf::46                       0                       # What write queue length does an incoming req see
system.mem_ctrl.wrQLenPdf::47                       0                       # What write queue length does an incoming req see
system.mem_ctrl.wrQLenPdf::48                       0                       # What write queue length does an incoming req see
system.mem_ctrl.wrQLenPdf::49                       0                       # What write queue length does an incoming req see
system.mem_ctrl.wrQLenPdf::50                       0                       # What write queue length does an incoming req see
system.mem_ctrl.wrQLenPdf::51                       0                       # What write queue length does an incoming req see
system.mem_ctrl.wrQLenPdf::52                       0                       # What write queue length does an incoming req see
system.mem_ctrl.wrQLenPdf::53                       0                       # What write queue length does an incoming req see
system.mem_ctrl.wrQLenPdf::54                       0                       # What write queue length does an incoming req see
system.mem_ctrl.wrQLenPdf::55                       0                       # What write queue length does an incoming req see
system.mem_ctrl.wrQLenPdf::56                       0                       # What write queue length does an incoming req see
system.mem_ctrl.wrQLenPdf::57                       0                       # What write queue length does an incoming req see
system.mem_ctrl.wrQLenPdf::58                       0                       # What write queue length does an incoming req see
system.mem_ctrl.wrQLenPdf::59                       0                       # What write queue length does an incoming req see
system.mem_ctrl.wrQLenPdf::60                       0                       # What write queue length does an incoming req see
system.mem_ctrl.wrQLenPdf::61                       0                       # What write queue length does an incoming req see
system.mem_ctrl.wrQLenPdf::62                       0                       # What write queue length does an incoming req see
system.mem_ctrl.wrQLenPdf::63                       0                       # What write queue length does an incoming req see
system.mem_ctrl.bytesPerActivate::samples         1555                       # Bytes accessed per row activation
system.mem_ctrl.bytesPerActivate::mean     247.521543                       # Bytes accessed per row activation
system.mem_ctrl.bytesPerActivate::gmean    148.500956                       # Bytes accessed per row activation
system.mem_ctrl.bytesPerActivate::stdev    291.457965                       # Bytes accessed per row activation
system.mem_ctrl.bytesPerActivate::0-127           689     44.31%     44.31% # Bytes accessed per row activation
system.mem_ctrl.bytesPerActivate::128-255          404     25.98%     70.29% # Bytes accessed per row activation
system.mem_ctrl.bytesPerActivate::256-383          151      9.71%     80.00% # Bytes accessed per row activation
system.mem_ctrl.bytesPerActivate::384-511           65      4.18%     84.18% # Bytes accessed per row activation
system.mem_ctrl.bytesPerActivate::512-639           52      3.34%     87.52% # Bytes accessed per row activation
system.mem_ctrl.bytesPerActivate::640-767           26      1.67%     89.20% # Bytes accessed per row activation
system.mem_ctrl.bytesPerActivate::768-895           19      1.22%     90.42% # Bytes accessed per row activation
system.mem_ctrl.bytesPerActivate::896-1023           16      1.03%     91.45% # Bytes accessed per row activation
system.mem_ctrl.bytesPerActivate::1024-1151          133      8.55%    100.00% # Bytes accessed per row activation
system.mem_ctrl.bytesPerActivate::total          1555                       # Bytes accessed per row activation
system.mem_ctrl.bytesReadDRAM                  384896                       # Total number of bytes read from DRAM
system.mem_ctrl.bytesReadWrQ                        0                       # Total number of bytes read from write queue
system.mem_ctrl.bytesWritten                        0                       # Total number of bytes written to DRAM
system.mem_ctrl.bytesReadSys                   384896                       # Total read bytes from the system interface side
system.mem_ctrl.bytesWrittenSys                     0                       # Total written bytes from the system interface side
system.mem_ctrl.avgRdBW                        100.58                       # Average DRAM read bandwidth in MiByte/s
system.mem_ctrl.avgWrBW                          0.00                       # Average achieved write bandwidth in MiByte/s
system.mem_ctrl.avgRdBWSys                     100.58                       # Average system read bandwidth in MiByte/s
system.mem_ctrl.avgWrBWSys                       0.00                       # Average system write bandwidth in MiByte/s
system.mem_ctrl.peakBW                       12800.00                       # Theoretical peak bandwidth in MiByte/s
system.mem_ctrl.busUtil                          0.79                       # Data bus utilization in percentage
system.mem_ctrl.busUtilRead                      0.79                       # Data bus utilization in percentage for reads
system.mem_ctrl.busUtilWrite                     0.00                       # Data bus utilization in percentage for writes
system.mem_ctrl.totGap                     3472665000                       # Total gap between requests
system.mem_ctrl.avgGap                      577430.16                       # Average gap between requests
system.mem_ctrl.masterReadBytes::.cpu.inst       100160                       # Per-master bytes read from memory
system.mem_ctrl.masterReadBytes::.cpu.data       284736                       # Per-master bytes read from memory
system.mem_ctrl.masterReadRate::.cpu.inst 26174165.868323247880                       # Per-master bytes read from memory rate (Bytes/sec)
system.mem_ctrl.masterReadRate::.cpu.data 74408219.775188580155                       # Per-master bytes read from memory rate (Bytes/sec)
system.mem_ctrl.masterReadAccesses::.cpu.inst         1565                       # Per-master read serviced memory accesses
system.mem_ctrl.masterReadAccesses::.cpu.data         4449                       # Per-master read serviced memory accesses
system.mem_ctrl.masterReadTotalLat::.cpu.inst     43165000                       # Per-master read total memory access latency
system.mem_ctrl.masterReadTotalLat::.cpu.data    115164250                       # Per-master read total memory access latency
system.mem_ctrl.masterReadAvgLat::.cpu.inst     27581.47                       # Per-master read average memory access latency
system.mem_ctrl.masterReadAvgLat::.cpu.data     25885.42                       # Per-master read average memory access latency
system.mem_ctrl.pageHitRate                     74.14                       # Row buffer hit rate, read and write combined
system.mem_ctrl.rank1.actEnergy               5761980                       # Energy for activate commands per rank (pJ)
system.mem_ctrl.rank1.preEnergy               3062565                       # Energy for precharge commands per rank (pJ)
system.mem_ctrl.rank1.readEnergy             20627460                       # Energy for read commands per rank (pJ)
system.mem_ctrl.rank1.writeEnergy                   0                       # Energy for write commands per rank (pJ)
system.mem_ctrl.rank1.refreshEnergy      301788240.000000                       # Energy for refresh commands per rank (pJ)
system.mem_ctrl.rank1.actBackEnergy         631516680                       # Energy for active background per rank (pJ)
system.mem_ctrl.rank1.preBackEnergy         937639680                       # Energy for precharge background per rank (pJ)
system.mem_ctrl.rank1.actPowerDownEnergy            0                       # Energy for active power-down per rank (pJ)
system.mem_ctrl.rank1.prePowerDownEnergy            0                       # Energy for precharge power-down per rank (pJ)
system.mem_ctrl.rank1.selfRefreshEnergy             0                       # Energy for self refresh per rank (pJ)
system.mem_ctrl.rank1.totalEnergy          1900396605                       # Total energy per rank (pJ)
system.mem_ctrl.rank1.averagePower         496.618370                       # Core power per rank (mW)
system.mem_ctrl.rank1.totalIdleTime                 0                       # Total Idle time Per DRAM Rank
system.mem_ctrl.rank1.memoryStateTime::IDLE   2431343000                       # Time in different power states
system.mem_ctrl.rank1.memoryStateTime::REF    127660000                       # Time in different power states
system.mem_ctrl.rank1.memoryStateTime::SREF            0                       # Time in different power states
system.mem_ctrl.rank1.memoryStateTime::PRE_PDN            0                       # Time in different power states
system.mem_ctrl.rank1.memoryStateTime::ACT   1267671000                       # Time in different power states
system.mem_ctrl.rank1.memoryStateTime::ACT_PDN            0                       # Time in different power states
system.mem_ctrl.rank0.actEnergy               5340720                       # Energy for activate commands per rank (pJ)
system.mem_ctrl.rank0.preEnergy               2838660                       # Energy for precharge commands per rank (pJ)
system.mem_ctrl.rank0.readEnergy             22312500                       # Energy for read commands per rank (pJ)
system.mem_ctrl.rank0.writeEnergy                   0                       # Energy for write commands per rank (pJ)
system.mem_ctrl.rank0.refreshEnergy      301788240.000000                       # Energy for refresh commands per rank (pJ)
system.mem_ctrl.rank0.actBackEnergy         767999760                       # Energy for active background per rank (pJ)
system.mem_ctrl.rank0.preBackEnergy         822706560                       # Energy for precharge background per rank (pJ)
system.mem_ctrl.rank0.actPowerDownEnergy            0                       # Energy for active power-down per rank (pJ)
system.mem_ctrl.rank0.prePowerDownEnergy            0                       # Energy for precharge power-down per rank (pJ)
system.mem_ctrl.rank0.selfRefreshEnergy             0                       # Energy for self refresh per rank (pJ)
system.mem_ctrl.rank0.totalEnergy          1922986440                       # Total energy per rank (pJ)
system.mem_ctrl.rank0.averagePower         502.521626                       # Core power per rank (mW)
system.mem_ctrl.rank0.totalIdleTime                 0                       # Total Idle time Per DRAM Rank
system.mem_ctrl.rank0.memoryStateTime::IDLE   2130907250                       # Time in different power states
system.mem_ctrl.rank0.memoryStateTime::REF    127660000                       # Time in different power states
system.mem_ctrl.rank0.memoryStateTime::SREF            0                       # Time in different power states
system.mem_ctrl.rank0.memoryStateTime::PRE_PDN            0                       # Time in different power states
system.mem_ctrl.rank0.memoryStateTime::ACT   1568106750                       # Time in different power states
system.mem_ctrl.rank0.memoryStateTime::ACT_PDN            0                       # Time in different power states
system.mem_ctrl.power_state.pwrStateResidencyTicks::UNDEFINED   3826674000                       # Cumulative time (in ticks) in various power states
system.cache_medium.blocked_cycles::no_mshrs            0                       # number of cycles access was blocked
system.cache_medium.blocked_cycles::no_targets            0                       # number of cycles access was blocked
system.cache_medium.blocked::no_mshrs               0                       # number of cycles access was blocked
system.cache_medium.blocked::no_targets             0                       # number of cycles access was blocked
system.cache_medium.avg_blocked_cycles::no_mshrs          nan                       # average number of cycles each access was blocked
system.cache_medium.avg_blocked_cycles::no_targets          nan                       # average number of cycles each access was blocked
system.cache_medium.replacements                    0                       # number of replacements
system.cache_medium.power_state.pwrStateResidencyTicks::UNDEFINED   3826674000                       # Cumulative time (in ticks) in various power states
system.cache_medium.tags.tagsinuse                  0                       # Cycle average of tags in use
system.cache_medium.tags.total_refs                 0                       # Total number of references to valid blocks.
system.cache_medium.tags.sampled_refs               0                       # Sample count of references to valid blocks.
system.cache_medium.tags.avg_refs                 nan                       # Average number of references to valid blocks.
system.cache_medium.tags.warmup_cycle               0                       # Cycle when the warmup percentage was hit.
system.cache_medium.tags.tag_accesses               0                       # Number of tag accesses
system.cache_medium.tags.data_accesses              0                       # Number of data accesses
system.cache_medium.tags.power_state.pwrStateResidencyTicks::UNDEFINED   3826674000                       # Cumulative time (in ticks) in various power states
system.clk_domain.clock                          1000                       # Clock period in ticks
system.clk_domain.voltage_domain.voltage            1                       # Voltage in Volts
system.dcache.demand_hits::.cpu.data           303914                       # number of demand (read+write) hits
system.dcache.demand_hits::total               303914                       # number of demand (read+write) hits
system.dcache.overall_hits::.cpu.data          304599                       # number of overall hits
system.dcache.overall_hits::total              304599                       # number of overall hits
system.dcache.demand_misses::.cpu.data           8468                       # number of demand (read+write) misses
system.dcache.demand_misses::total               8468                       # number of demand (read+write) misses
system.dcache.overall_misses::.cpu.data          8750                       # number of overall misses
system.dcache.overall_misses::total              8750                       # number of overall misses
system.dcache.demand_miss_latency::.cpu.data    403289000                       # number of demand (read+write) miss cycles
system.dcache.demand_miss_latency::total    403289000                       # number of demand (read+write) miss cycles
system.dcache.overall_miss_latency::.cpu.data    411403000                       # number of overall miss cycles
system.dcache.overall_miss_latency::total    411403000                       # number of overall miss cycles
system.dcache.demand_accesses::.cpu.data       312382                       # number of demand (read+write) accesses
system.dcache.demand_accesses::total           312382                       # number of demand (read+write) accesses
system.dcache.overall_accesses::.cpu.data       313349                       # number of overall (read+write) accesses
system.dcache.overall_accesses::total          313349                       # number of overall (read+write) accesses
system.dcache.demand_miss_rate::.cpu.data     0.027108                       # miss rate for demand accesses
system.dcache.demand_miss_rate::total        0.027108                       # miss rate for demand accesses
system.dcache.overall_miss_rate::.cpu.data     0.027924                       # miss rate for overall accesses
system.dcache.overall_miss_rate::total       0.027924                       # miss rate for overall accesses
system.dcache.demand_avg_miss_latency::.cpu.data 47625.059046                       # average overall miss latency
system.dcache.demand_avg_miss_latency::total 47625.059046                       # average overall miss latency
system.dcache.overall_avg_miss_latency::.cpu.data 47017.485714                       # average overall miss latency
system.dcache.overall_avg_miss_latency::total 47017.485714                       # average overall miss latency
system.dcache.blocked_cycles::no_mshrs              0                       # number of cycles access was blocked
system.dcache.blocked_cycles::no_targets            0                       # number of cycles access was blocked
system.dcache.blocked::no_mshrs                     0                       # number of cycles access was blocked
system.dcache.blocked::no_targets                   0                       # number of cycles access was blocked
system.dcache.avg_blocked_cycles::no_mshrs          nan                       # average number of cycles each access was blocked
system.dcache.avg_blocked_cycles::no_targets          nan                       # average number of cycles each access was blocked
system.dcache.writebacks::.writebacks            5498                       # number of writebacks
system.dcache.writebacks::total                  5498                       # number of writebacks
system.dcache.demand_mshr_misses::.cpu.data         8468                       # number of demand (read+write) MSHR misses
system.dcache.demand_mshr_misses::total          8468                       # number of demand (read+write) MSHR misses
system.dcache.overall_mshr_misses::.cpu.data         8750                       # number of overall MSHR misses
system.dcache.overall_mshr_misses::total         8750                       # number of overall MSHR misses
system.dcache.demand_mshr_miss_latency::.cpu.data    386355000                       # number of demand (read+write) MSHR miss cycles
system.dcache.demand_mshr_miss_latency::total    386355000                       # number of demand (read+write) MSHR miss cycles
system.dcache.overall_mshr_miss_latency::.cpu.data    393905000                       # number of overall MSHR miss cycles
system.dcache.overall_mshr_miss_latency::total    393905000                       # number of overall MSHR miss cycles
system.dcache.demand_mshr_miss_rate::.cpu.data     0.027108                       # mshr miss rate for demand accesses
system.dcache.demand_mshr_miss_rate::total     0.027108                       # mshr miss rate for demand accesses
system.dcache.overall_mshr_miss_rate::.cpu.data     0.027924                       # mshr miss rate for overall accesses
system.dcache.overall_mshr_miss_rate::total     0.027924                       # mshr miss rate for overall accesses
system.dcache.demand_avg_mshr_miss_latency::.cpu.data 45625.295229                       # average overall mshr miss latency
system.dcache.demand_avg_mshr_miss_latency::total 45625.295229                       # average overall mshr miss latency
system.dcache.overall_avg_mshr_miss_latency::.cpu.data 45017.714286                       # average overall mshr miss latency
system.dcache.overall_avg_mshr_miss_latency::total 45017.714286                       # average overall mshr miss latency
system.dcache.replacements                       8493                       # number of replacements
system.dcache.ReadReq_hits::.cpu.data          172470                       # number of ReadReq hits
system.dcache.ReadReq_hits::total              172470                       # number of ReadReq hits
system.dcache.ReadReq_misses::.cpu.data          4206                       # number of ReadReq misses
system.dcache.ReadReq_misses::total              4206                       # number of ReadReq misses
system.dcache.ReadReq_miss_latency::.cpu.data    135247000                       # number of ReadReq miss cycles
system.dcache.ReadReq_miss_latency::total    135247000                       # number of ReadReq miss cycles
system.dcache.ReadReq_accesses::.cpu.data       176676                       # number of ReadReq accesses(hits+misses)
system.dcache.ReadReq_accesses::total          176676                       # number of ReadReq accesses(hits+misses)
system.dcache.ReadReq_miss_rate::.cpu.data     0.023806                       # miss rate for ReadReq accesses
system.dcache.ReadReq_miss_rate::total       0.023806                       # miss rate for ReadReq accesses
system.dcache.ReadReq_avg_miss_latency::.cpu.data 32155.729910                       # average ReadReq miss latency
system.dcache.ReadReq_avg_miss_latency::total 32155.729910                       # average ReadReq miss latency
system.dcache.ReadReq_mshr_misses::.cpu.data         4206                       # number of ReadReq MSHR misses
system.dcache.ReadReq_mshr_misses::total         4206                       # number of ReadReq MSHR misses
system.dcache.ReadReq_mshr_miss_latency::.cpu.data    126835000                       # number of ReadReq MSHR miss cycles
system.dcache.ReadReq_mshr_miss_latency::total    126835000                       # number of ReadReq MSHR miss cycles
system.dcache.ReadReq_mshr_miss_rate::.cpu.data     0.023806                       # mshr miss rate for ReadReq accesses
system.dcache.ReadReq_mshr_miss_rate::total     0.023806                       # mshr miss rate for ReadReq accesses
system.dcache.ReadReq_avg_mshr_miss_latency::.cpu.data 30155.729910                       # average ReadReq mshr miss latency
system.dcache.ReadReq_avg_mshr_miss_latency::total 30155.729910                       # average ReadReq mshr miss latency
system.dcache.WriteReq_hits::.cpu.data         131444                       # number of WriteReq hits
system.dcache.WriteReq_hits::total             131444                       # number of WriteReq hits
system.dcache.WriteReq_misses::.cpu.data         4262                       # number of WriteReq misses
system.dcache.WriteReq_misses::total             4262                       # number of WriteReq misses
system.dcache.WriteReq_miss_latency::.cpu.data    268042000                       # number of WriteReq miss cycles
system.dcache.WriteReq_miss_latency::total    268042000                       # number of WriteReq miss cycles
system.dcache.WriteReq_accesses::.cpu.data       135706                       # number of WriteReq accesses(hits+misses)
system.dcache.WriteReq_accesses::total         135706                       # number of WriteReq accesses(hits+misses)
system.dcache.WriteReq_miss_rate::.cpu.data     0.031406                       # miss rate for WriteReq accesses
[...]
system.dcache.tags.age_task_id_blocks_1024::1           20                       # Occupied blocks per task id
system.dcache.tags.age_task_id_blocks_1024::2          235                       # Occupied blocks per task id
system.dcache.tags.age_task_id_blocks_1024::3            1                       # Occupied blocks per task id
system.dcache.tags.occ_task_id_percent::1024            1                       # Percentage of cache occupancy per task id
system.dcache.tags.tag_accesses               2770541                       # Number of tag accesses
system.dcache.tags.data_accesses              2770541                       # Number of data accesses
system.dcache.tags.power_state.pwrStateResidencyTicks::UNDEFINED  29606606000                       # Cumulative time (in ticks) in various power states
system.cache_large.blocked_cycles::no_mshrs            0                       # number of cycles access was blocked
system.cache_large.blocked_cycles::no_targets            0                       # number of cycles access was blocked
system.cache_large.blocked::no_mshrs                0                       # number of cycles access was blocked
system.cache_large.blocked::no_targets              0                       # number of cycles access was blocked
system.cache_large.avg_blocked_cycles::no_mshrs          nan                       # average number of cycles each access was blocked
system.cache_large.avg_blocked_cycles::no_targets          nan                       # average number of cycles each access was blocked
system.cache_large.replacements                     0                       # number of replacements
system.cache_large.power_state.pwrStateResidencyTicks::UNDEFINED  29606606000                       # Cumulative time (in ticks) in various power states
system.cache_large.tags.tagsinuse                   0                       # Cycle average of tags in use
system.cache_large.tags.total_refs                  0                       # Total number of references to valid blocks.
system.cache_large.tags.sampled_refs                0                       # Sample count of references to valid blocks.
system.cache_large.tags.avg_refs                  nan                       # Average number of references to valid blocks.
system.cache_large.tags.warmup_cycle                0                       # Cycle when the warmup percentage was hit.
system.cache_large.tags.tag_accesses                0                       # Number of tag accesses
system.cache_large.tags.data_accesses               0                       # Number of data accesses
system.cache_large.tags.power_state.pwrStateResidencyTicks::UNDEFINED  29606606000                       # Cumulative time (in ticks) in various power states
system.l2cache.demand_hits::.cpu.inst           71868                       # number of demand (read+write) hits
system.l2cache.demand_hits::.cpu.data           33466                       # number of demand (read+write) hits
system.l2cache.demand_hits::total              105334                       # number of demand (read+write) hits
system.l2cache.overall_hits::.cpu.inst          71868                       # number of overall hits
system.l2cache.overall_hits::.cpu.data          33466                       # number of overall hits
system.l2cache.overall_hits::total             105334                       # number of overall hits
system.l2cache.demand_misses::.cpu.inst         65393                       # number of demand (read+write) misses
system.l2cache.demand_misses::.cpu.data         69613                       # number of demand (read+write) misses
system.l2cache.demand_misses::total            135006                       # number of demand (read+write) misses
system.l2cache.overall_misses::.cpu.inst        65393                       # number of overall misses
system.l2cache.overall_misses::.cpu.data        69613                       # number of overall misses
system.l2cache.overall_misses::total           135006                       # number of overall misses
system.l2cache.demand_miss_latency::.cpu.inst   1120725000                       # number of demand (read+write) miss cycles
system.l2cache.demand_miss_latency::.cpu.data   2652667000                       # number of demand (read+write) miss cycles
system.l2cache.demand_miss_latency::total   3773392000                       # number of demand (read+write) miss cycles
system.l2cache.overall_miss_latency::.cpu.inst   1120725000                       # number of overall miss cycles
system.l2cache.overall_miss_latency::.cpu.data   2652667000                       # number of overall miss cycles
system.l2cache.overall_miss_latency::total   3773392000                       # number of overall miss cycles
system.l2cache.demand_accesses::.cpu.inst       137261                       # number of demand (read+write) accesses
system.l2cache.demand_accesses::.cpu.data       103079                       # number of demand (read+write) accesses
system.l2cache.demand_accesses::total          240340                       # number of demand (read+write) accesses
system.l2cache.overall_accesses::.cpu.inst       137261                       # number of overall (read+write) accesses
system.l2cache.overall_accesses::.cpu.data       103079                       # number of overall (read+write) accesses
system.l2cache.overall_accesses::total         240340                       # number of overall (read+write) accesses
system.l2cache.demand_miss_rate::.cpu.inst     0.476414                       # miss rate for demand accesses
system.l2cache.demand_miss_rate::.cpu.data     0.675336                       # miss rate for demand accesses
system.l2cache.demand_miss_rate::total       0.561729                       # miss rate for demand accesses
system.l2cache.overall_miss_rate::.cpu.inst     0.476414                       # miss rate for overall accesses
system.l2cache.overall_miss_rate::.cpu.data     0.675336                       # miss rate for overall accesses
system.l2cache.overall_miss_rate::total      0.561729                       # miss rate for overall accesses
system.l2cache.demand_avg_miss_latency::.cpu.inst 17138.302265                       # average overall miss latency
system.l2cache.demand_avg_miss_latency::.cpu.data 38105.914125                       # average overall miss latency
system.l2cache.demand_avg_miss_latency::total 27949.809638                       # average overall miss latency
system.l2cache.overall_avg_miss_latency::.cpu.inst 17138.302265                       # average overall miss latency
system.l2cache.overall_avg_miss_latency::.cpu.data 38105.914125                       # average overall miss latency
system.l2cache.overall_avg_miss_latency::total 27949.809638                       # average overall miss latency
system.l2cache.blocked_cycles::no_mshrs             0                       # number of cycles access was blocked
system.l2cache.blocked_cycles::no_targets            0                       # number of cycles access was blocked
system.l2cache.blocked::no_mshrs                    0                       # number of cycles access was blocked
system.l2cache.blocked::no_targets                  0                       # number of cycles access was blocked
system.l2cache.avg_blocked_cycles::no_mshrs          nan                       # average number of cycles each access was blocked
system.l2cache.avg_blocked_cycles::no_targets          nan                       # average number of cycles each access was blocked
system.l2cache.writebacks::.writebacks          44902                       # number of writebacks
system.l2cache.writebacks::total                44902                       # number of writebacks
system.l2cache.demand_mshr_misses::.cpu.inst        65393                       # number of demand (read+write) MSHR misses
system.l2cache.demand_mshr_misses::.cpu.data        69613                       # number of demand (read+write) MSHR misses
system.l2cache.demand_mshr_misses::total       135006                       # number of demand (read+write) MSHR misses
system.l2cache.overall_mshr_misses::.cpu.inst        65393                       # number of overall MSHR misses
system.l2cache.overall_mshr_misses::.cpu.data        69613                       # number of overall MSHR misses
system.l2cache.overall_mshr_misses::total       135006                       # number of overall MSHR misses
system.l2cache.demand_mshr_miss_latency::.cpu.inst    989939000                       # number of demand (read+write) MSHR miss cycles
system.l2cache.demand_mshr_miss_latency::.cpu.data   2513441000                       # number of demand (read+write) MSHR miss cycles
system.l2cache.demand_mshr_miss_latency::total   3503380000                       # number of demand (read+write) MSHR miss cycles
system.l2cache.overall_mshr_miss_latency::.cpu.inst    989939000                       # number of overall MSHR miss cycles
system.l2cache.overall_mshr_miss_latency::.cpu.data   2513441000                       # number of overall MSHR miss cycles
system.l2cache.overall_mshr_miss_latency::total   3503380000                       # number of overall MSHR miss cycles
system.l2cache.demand_mshr_miss_rate::.cpu.inst     0.476414                       # mshr miss rate for demand accesses
system.l2cache.demand_mshr_miss_rate::.cpu.data     0.675336                       # mshr miss rate for demand accesses
system.l2cache.demand_mshr_miss_rate::total     0.561729                       # mshr miss rate for demand accesses
system.l2cache.overall_mshr_miss_rate::.cpu.inst     0.476414                       # mshr miss rate for overall accesses
system.l2cache.overall_mshr_miss_rate::.cpu.data     0.675336                       # mshr miss rate for overall accesses
system.l2cache.overall_mshr_miss_rate::total     0.561729                       # mshr miss rate for overall accesses
system.l2cache.demand_avg_mshr_miss_latency::.cpu.inst 15138.302265                       # average overall mshr miss latency
system.l2cache.demand_avg_mshr_miss_latency::.cpu.data 36105.914125                       # average overall mshr miss latency
system.l2cache.demand_avg_mshr_miss_latency::total 25949.809638                       # average overall mshr miss latency
system.l2cache.overall_avg_mshr_miss_latency::.cpu.inst 15138.302265                       # average overall mshr miss latency
system.l2cache.overall_avg_mshr_miss_latency::.cpu.data 36105.914125                       # average overall mshr miss latency
system.l2cache.overall_avg_mshr_miss_latency::total 25949.809638                       # average overall mshr miss latency
system.l2cache.replacements                    161841                       # number of replacements
system.l2cache.ReadReq_hits::.cpu.inst          71868                       # number of ReadReq hits
system.l2cache.ReadReq_hits::.cpu.data          33466                       # number of ReadReq hits
system.l2cache.ReadReq_hits::total             105334                       # number of ReadReq hits
system.l2cache.ReadReq_misses::.cpu.inst        65393                       # number of ReadReq misses
system.l2cache.ReadReq_misses::.cpu.data        69613                       # number of ReadReq misses
system.l2cache.ReadReq_misses::total           135006                       # number of ReadReq misses
system.l2cache.ReadReq_miss_latency::.cpu.inst   1120725000                       # number of ReadReq miss cycles
system.l2cache.ReadReq_miss_latency::.cpu.data   2652667000                       # number of ReadReq miss cycles
system.l2cache.ReadReq_miss_latency::total   3773392000                       # number of ReadReq miss cycles
system.l2cache.ReadReq_accesses::.cpu.inst       137261                       # number of ReadReq accesses(hits+misses)
system.l2cache.ReadReq_accesses::.cpu.data       103079                       # number of ReadReq accesses(hits+misses)
system.l2cache.ReadReq_accesses::total         240340                       # number of ReadReq accesses(hits+misses)
system.l2cache.ReadReq_miss_rate::.cpu.inst     0.476414                       # miss rate for ReadReq accesses
system.l2cache.ReadReq_miss_rate::.cpu.data     0.675336                       # miss rate for ReadReq accesses
system.l2cache.ReadReq_miss_rate::total      0.561729                       # miss rate for ReadReq accesses
system.l2cache.ReadReq_avg_miss_latency::.cpu.inst 17138.302265                       # average ReadReq miss latency
system.l2cache.ReadReq_avg_miss_latency::.cpu.data 38105.914125                       # average ReadReq miss latency
system.l2cache.ReadReq_avg_miss_latency::total 27949.809638                       # average ReadReq miss latency
system.l2cache.ReadReq_mshr_misses::.cpu.inst        65393                       # number of ReadReq MSHR misses
system.l2cache.ReadReq_mshr_misses::.cpu.data        69613                       # number of ReadReq MSHR misses
system.l2cache.ReadReq_mshr_misses::total       135006                       # number of ReadReq MSHR misses
system.l2cache.ReadReq_mshr_miss_latency::.cpu.inst    989939000                       # number of ReadReq MSHR miss cycles
system.l2cache.ReadReq_mshr_miss_latency::.cpu.data   2513441000                       # number of ReadReq MSHR miss cycles
system.l2cache.ReadReq_mshr_miss_latency::total   3503380000                       # number of ReadReq MSHR miss cycles
system.l2cache.ReadReq_mshr_miss_rate::.cpu.inst     0.476414                       # mshr miss rate for ReadReq accesses
system.l2cache.ReadReq_mshr_miss_rate::.cpu.data     0.675336                       # mshr miss rate for ReadReq accesses
system.l2cache.ReadReq_mshr_miss_rate::total     0.561729                       # mshr miss rate for ReadReq accesses
system.l2cache.ReadReq_avg_mshr_miss_latency::.cpu.inst 15138.302265                       # average ReadReq mshr miss latency
system.l2cache.ReadReq_avg_mshr_miss_latency::.cpu.data 36105.914125                       # average ReadReq mshr miss latency
system.l2cache.ReadReq_avg_mshr_miss_latency::total 25949.809638                       # average ReadReq mshr miss latency
system.l2cache.WritebackDirty_hits::.writebacks        52259                       # number of WritebackDirty hits
system.l2cache.WritebackDirty_hits::total        52259                       # number of WritebackDirty hits
system.l2cache.WritebackDirty_accesses::.writebacks        52259                       # number of WritebackDirty accesses(hits+misses)
system.l2cache.WritebackDirty_accesses::total        52259                       # number of WritebackDirty accesses(hits+misses)
system.l2cache.power_state.pwrStateResidencyTicks::UNDEFINED  29606606000                       # Cumulative time (in ticks) in various power states
system.l2cache.tags.tagsinuse              510.852010                       # Cycle average of tags in use
system.l2cache.tags.total_refs                 292599                       # Total number of references to valid blocks.
system.l2cache.tags.sampled_refs               162353                       # Sample count of references to valid blocks.
system.l2cache.tags.avg_refs                 1.802240                       # Average number of references to valid blocks.
system.l2cache.tags.warmup_cycle                78000                       # Cycle when the warmup percentage was hit.
system.l2cache.tags.occ_blocks::.writebacks   123.070769                       # Average occupied blocks per requestor
system.l2cache.tags.occ_blocks::.cpu.inst   127.771310                       # Average occupied blocks per requestor
system.l2cache.tags.occ_blocks::.cpu.data   260.009932                       # Average occupied blocks per requestor
system.l2cache.tags.occ_percent::.writebacks     0.240373                       # Average percentage of cache occupancy
system.l2cache.tags.occ_percent::.cpu.inst     0.249553                       # Average percentage of cache occupancy
system.l2cache.tags.occ_percent::.cpu.data     0.507832                       # Average percentage of cache occupancy
system.l2cache.tags.occ_percent::total       0.997758                       # Average percentage of cache occupancy
system.l2cache.tags.occ_task_id_blocks::1024          512                       # Occupied blocks per task id
system.l2cache.tags.age_task_id_blocks_1024::1           14                       # Occupied blocks per task id
system.l2cache.tags.age_task_id_blocks_1024::2          423                       # Occupied blocks per task id
system.l2cache.tags.age_task_id_blocks_1024::3           75                       # Occupied blocks per task id
system.l2cache.tags.occ_task_id_percent::1024            1                       # Percentage of cache occupancy per task id
system.l2cache.tags.tag_accesses               454952                       # Number of tag accesses
system.l2cache.tags.data_accesses              454952                       # Number of data accesses
system.l2cache.tags.power_state.pwrStateResidencyTicks::UNDEFINED  29606606000                       # Cumulative time (in ticks) in various power states
system.l2bar.trans_dist::ReadReq               240340                       # Transaction distribution
system.l2bar.trans_dist::ReadResp              240340                       # Transaction distribution
system.l2bar.trans_dist::WritebackDirty         52259                       # Transaction distribution
system.l2bar.pkt_count_system.dcache.mem_side::system.l2cache.cpu_side       258417                       # Packet count per connected master and slave (bytes)
system.l2bar.pkt_count_system.icache.mem_side::system.l2cache.cpu_side       274522                       # Packet count per connected master and slave (bytes)
system.l2bar.pkt_count::total                  532939                       # Packet count per connected master and slave (bytes)
system.l2bar.pkt_size_system.dcache.mem_side::system.l2cache.cpu_side      9941632                       # Cumulative packet size per connected master and slave (bytes)
system.l2bar.pkt_size_system.icache.mem_side::system.l2cache.cpu_side      8784704                       # Cumulative packet size per connected master and slave (bytes)
system.l2bar.pkt_size::total                 18726336                       # Cumulative packet size per connected master and slave (bytes)
system.l2bar.respLayer1.occupancy           686305000                       # Layer occupancy (ticks)
system.l2bar.respLayer1.utilization               2.3                       # Layer utilization (%)
system.l2bar.reqLayer0.occupancy            501635000                       # Layer occupancy (ticks)
system.l2bar.reqLayer0.utilization                1.7                       # Layer utilization (%)
system.l2bar.respLayer0.occupancy           515395000                       # Layer occupancy (ticks)
system.l2bar.respLayer0.utilization               1.7                       # Layer utilization (%)
system.l2bar.power_state.pwrStateResidencyTicks::UNDEFINED  29606606000                       # Cumulative time (in ticks) in various power states
system.cpu.dtb.walker.power_state.pwrStateResidencyTicks::UNDEFINED  29606606000                       # Cumulative time (in ticks) in various power states
system.cpu.interrupts.clk_domain.clock          16000                       # Clock period in ticks
system.cpu.itb.walker.power_state.pwrStateResidencyTicks::UNDEFINED  29606606000                       # Cumulative time (in ticks) in various power states
system.cpu.power_state.numTransitions               1                       # Number of power state transitions
system.cpu.power_state.pwrStateResidencyTicks::ON  29606606000                       # Cumulative time (in ticks) in various power states

---------- End Simulation Statistics   ----------
