
---------- Begin Simulation Statistics ----------
final_tick                                 4820938000                       # Number of ticks from beginning of simulation (restored from checkpoints and never reset)
host_inst_rate                                  87566                       # Simulator instruction rate (inst/s)
host_mem_usage                               34371820                       # Number of bytes of host memory used
host_op_rate                                   158008                       # Simulator op (including micro ops) rate (op/s)
host_seconds                                    11.42                       # Real time elapsed on the host
host_tick_rate                              422142489                       # Simulator tick rate (ticks/s)
sim_freq                                 1000000000000                       # Frequency of simulated ticks
sim_insts                                     1000001                       # Number of instructions simulated
sim_ops                                       1804475                       # Number of ops (including micro ops) simulated
sim_seconds                                  0.004821                       # Number of seconds simulated
sim_ticks                                  4820938000                       # Number of ticks simulated
system.cpu.Branches                            205593                       # Number of branches fetched
system.cpu.committedInsts                     1000001                       # Number of instructions committed
system.cpu.committedOps                       1804475                       # Number of ops (including micro ops) committed
system.cpu.dtb.rdAccesses                      210775                       # TLB accesses on read requests
system.cpu.dtb.rdMisses                           104                       # TLB misses on read requests
system.cpu.dtb.wrAccesses                      156157                       # TLB accesses on write requests
system.cpu.dtb.wrMisses                           132                       # TLB misses on write requests
system.cpu.idle_fraction                            0                       # Percentage of idle cycles
system.cpu.itb.rdAccesses                           0                       # TLB accesses on read requests
system.cpu.itb.rdMisses                             0                       # TLB misses on read requests
system.cpu.itb.wrAccesses                     1332480                       # TLB accesses on write requests
system.cpu.itb.wrMisses                          1110                       # TLB misses on write requests
system.cpu.not_idle_fraction                        1                       # Percentage of non-idle cycles
system.cpu.numCycles                          4820927                       # number of cpu cycles simulated
system.cpu.numWorkItemsCompleted                    0                       # number of work items this cpu completed
system.cpu.numWorkItemsStarted                      0                       # number of work items this cpu started
system.cpu.num_busy_cycles                    4820927                       # Number of busy cycles
system.cpu.num_cc_register_reads              1099309                       # number of times the CC registers were read
system.cpu.num_cc_register_writes              688280                       # number of times the CC registers were written
system.cpu.num_conditional_control_insts       162376                       # number of instructions that are conditional controls
system.cpu.num_fp_alu_accesses                  25985                       # Number of float alu accesses
system.cpu.num_fp_insts                         25985                       # number of float instructions
system.cpu.num_fp_register_reads                33304                       # number of times the floating registers were read
system.cpu.num_fp_register_writes               10256                       # number of times the floating registers were written
system.cpu.num_func_calls                       26893                       # number of times a function call or return occured
system.cpu.num_idle_cycles                          0                       # Number of idle cycles
system.cpu.num_int_alu_accesses               1784264                       # Number of integer alu accesses
system.cpu.num_int_insts                      1784264                       # number of integer instructions
system.cpu.num_int_register_reads             3577239                       # number of times the integer registers were read
system.cpu.num_int_register_writes            1465055                       # number of times the integer registers were written
system.cpu.num_load_insts                      210660                       # Number of load instructions
system.cpu.num_mem_refs                        366815                       # number of memory refs
system.cpu.num_store_insts                     156155                       # Number of store instructions
system.cpu.num_vec_alu_accesses                     0                       # Number of vector alu accesses
system.cpu.num_vec_insts                            0                       # number of vector instructions
system.cpu.num_vec_register_reads                   0                       # number of times the vector registers were read
system.cpu.num_vec_register_writes                  0                       # number of times the vector registers were written
system.cpu.op_class::No_OpClass                 10803      0.60%      0.60% # Class of executed instruction
system.cpu.op_class::IntAlu                   1398688     77.51%     78.11% # Class of executed instruction
system.cpu.op_class::IntMult                     1046      0.06%     78.17% # Class of executed instruction
system.cpu.op_class::IntDiv                     17600      0.98%     79.14% # Class of executed instruction
system.cpu.op_class::FloatAdd                     477      0.03%     79.17% # Class of executed instruction
system.cpu.op_class::FloatCmp                       0      0.00%     79.17% # Class of executed instruction
system.cpu.op_class::FloatCvt                       0      0.00%     79.17% # Class of executed instruction
system.cpu.op_class::FloatMult                      0      0.00%     79.17% # Class of executed instruction
system.cpu.op_class::FloatMultAcc                   0      0.00%     79.17% # Class of executed instruction
system.cpu.op_class::FloatDiv                       0      0.00%     79.17% # Class of executed instruction
system.cpu.op_class::FloatMisc                      0      0.00%     79.17% # Class of executed instruction
system.cpu.op_class::FloatSqrt                      0      0.00%     79.17% # Class of executed instruction
system.cpu.op_class::SimdAdd                        8      0.00%     79.17% # Class of executed instruction
system.cpu.op_class::SimdAddAcc                     0      0.00%     79.17% # Class of executed instruction
system.cpu.op_class::SimdAlu                     2091      0.12%     79.28% # Class of executed instruction
system.cpu.op_class::SimdCmp                        0      0.00%     79.28% # Class of executed instruction
system.cpu.op_class::SimdCvt                     1832      0.10%     79.39% # Class of executed instruction
system.cpu.op_class::SimdMisc                    5173      0.29%     79.67% # Class of executed instruction
system.cpu.op_class::SimdMult                       0      0.00%     79.67% # Class of executed instruction
system.cpu.op_class::SimdMultAcc                    0      0.00%     79.67% # Class of executed instruction
system.cpu.op_class::SimdShift                      3      0.00%     79.67% # Class of executed instruction
system.cpu.op_class::SimdShiftAcc                   0      0.00%     79.67% # Class of executed instruction
system.cpu.op_class::SimdDiv                        0      0.00%     79.67% # Class of executed instruction
system.cpu.op_class::SimdSqrt                       0      0.00%     79.67% # Class of executed instruction
system.cpu.op_class::SimdFloatAdd                   0      0.00%     79.67% # Class of executed instruction
system.cpu.op_class::SimdFloatAlu                   0      0.00%     79.67% # Class of executed instruction
system.cpu.op_class::SimdFloatCmp                   0      0.00%     79.67% # Class of executed instruction
system.cpu.op_class::SimdFloatCvt                   0      0.00%     79.67% # Class of executed instruction
system.cpu.op_class::SimdFloatDiv                   0      0.00%     79.67% # Class of executed instruction
system.cpu.op_class::SimdFloatMisc                  0      0.00%     79.67% # Class of executed instruction
system.cpu.op_class::SimdFloatMult                  0      0.00%     79.67% # Class of executed instruction
system.cpu.op_class::SimdFloatMultAcc               0      0.00%     79.67% # Class of executed instruction
system.cpu.op_class::SimdFloatSqrt                  0      0.00%     79.67% # Class of executed instruction
system.cpu.op_class::SimdReduceAdd                  0      0.00%     79.67% # Class of executed instruction
system.cpu.op_class::SimdReduceAlu                  0      0.00%     79.67% # Class of executed instruction
system.cpu.op_class::SimdReduceCmp                  0      0.00%     79.67% # Class of executed instruction
system.cpu.op_class::SimdFloatReduceAdd             0      0.00%     79.67% # Class of executed instruction
system.cpu.op_class::SimdFloatReduceCmp             0      0.00%     79.67% # Class of executed instruction
system.cpu.op_class::SimdAes                        0      0.00%     79.67% # Class of executed instruction
system.cpu.op_class::SimdAesMix                     0      0.00%     79.67% # Class of executed instruction
system.cpu.op_class::SimdSha1Hash                   0      0.00%     79.67% # Class of executed instruction
system.cpu.op_class::SimdSha1Hash2                  0      0.00%     79.67% # Class of executed instruction
system.cpu.op_class::SimdSha256Hash                 0      0.00%     79.67% # Class of executed instruction
system.cpu.op_class::SimdSha256Hash2                0      0.00%     79.67% # Class of executed instruction
system.cpu.op_class::SimdShaSigma2                  0      0.00%     79.67% # Class of executed instruction
system.cpu.op_class::SimdShaSigma3                  0      0.00%     79.67% # Class of executed instruction
system.cpu.op_class::SimdPredAlu                    0      0.00%     79.67% # Class of executed instruction
system.cpu.op_class::MemRead                   208987     11.58%     91.25% # Class of executed instruction
system.cpu.op_class::MemWrite                  142260      7.88%     99.14% # Class of executed instruction
system.cpu.op_class::FloatMemRead                1673      0.09%     99.23% # Class of executed instruction
system.cpu.op_class::FloatMemWrite              13895      0.77%    100.00% # Class of executed instruction
system.cpu.op_class::IprAccess                      0      0.00%    100.00% # Class of executed instruction
system.cpu.op_class::InstPrefetch                   0      0.00%    100.00% # Class of executed instruction
system.cpu.op_class::total                    1804536                       # Class of executed instruction
system.cpu.workload.numSyscalls                    44                       # Number of system calls
system.dynamic_cache.flushTicks                     0                       # Ticks taken to flush
system.dynamic_cache.numFlushes                     0                       # Number of Flushes Taken
system.cache_small.demand_hits::.cpu.inst        28853                       # number of demand (read+write) hits
system.cache_small.demand_hits::.cpu.data         6525                       # number of demand (read+write) hits
system.cache_small.demand_hits::total           35378                       # number of demand (read+write) hits
system.cache_small.overall_hits::.cpu.inst        28853                       # number of overall hits
system.cache_small.overall_hits::.cpu.data         6525                       # number of overall hits
system.cache_small.overall_hits::total          35378                       # number of overall hits
system.cache_small.demand_misses::.cpu.inst         2973                       # number of demand (read+write) misses
system.cache_small.demand_misses::.cpu.data         3935                       # number of demand (read+write) misses
system.cache_small.demand_misses::total          6908                       # number of demand (read+write) misses
system.cache_small.overall_misses::.cpu.inst         2973                       # number of overall misses
system.cache_small.overall_misses::.cpu.data         3935                       # number of overall misses
system.cache_small.overall_misses::total         6908                       # number of overall misses
system.cache_small.demand_miss_latency::.cpu.inst    179457000                       # number of demand (read+write) miss cycles
system.cache_small.demand_miss_latency::.cpu.data    233300000                       # number of demand (read+write) miss cycles
system.cache_small.demand_miss_latency::total    412757000                       # number of demand (read+write) miss cycles
system.cache_small.overall_miss_latency::.cpu.inst    179457000                       # number of overall miss cycles
system.cache_small.overall_miss_latency::.cpu.data    233300000                       # number of overall miss cycles
system.cache_small.overall_miss_latency::total    412757000                       # number of overall miss cycles
system.cache_small.demand_accesses::.cpu.inst        31826                       # number of demand (read+write) accesses
system.cache_small.demand_accesses::.cpu.data        10460                       # number of demand (read+write) accesses
system.cache_small.demand_accesses::total        42286                       # number of demand (read+write) accesses
system.cache_small.overall_accesses::.cpu.inst        31826                       # number of overall (read+write) accesses
system.cache_small.overall_accesses::.cpu.data        10460                       # number of overall (read+write) accesses
system.cache_small.overall_accesses::total        42286                       # number of overall (read+write) accesses
system.cache_small.demand_miss_rate::.cpu.inst     0.093414                       # miss rate for demand accesses
system.cache_small.demand_miss_rate::.cpu.data     0.376195                       # miss rate for demand accesses
system.cache_small.demand_miss_rate::total     0.163364                       # miss rate for demand accesses
system.cache_small.overall_miss_rate::.cpu.inst     0.093414                       # miss rate for overall accesses
system.cache_small.overall_miss_rate::.cpu.data     0.376195                       # miss rate for overall accesses
system.cache_small.overall_miss_rate::total     0.163364                       # miss rate for overall accesses
system.cache_small.demand_avg_miss_latency::.cpu.inst 60362.260343                       # average overall miss latency
system.cache_small.demand_avg_miss_latency::.cpu.data 59288.437103                       # average overall miss latency
system.cache_small.demand_avg_miss_latency::total 59750.579039                       # average overall miss latency
system.cache_small.overall_avg_miss_latency::.cpu.inst 60362.260343                       # average overall miss latency
system.cache_small.overall_avg_miss_latency::.cpu.data 59288.437103                       # average overall miss latency
system.cache_small.overall_avg_miss_latency::total 59750.579039                       # average overall miss latency
system.cache_small.blocked_cycles::no_mshrs            0                       # number of cycles access was blocked
system.cache_small.blocked_cycles::no_targets            0                       # number of cycles access was blocked
system.cache_small.blocked::no_mshrs                0                       # number of cycles access was blocked
system.cache_small.blocked::no_targets              0                       # number of cycles access was blocked
system.cache_small.avg_blocked_cycles::no_mshrs          nan                       # average number of cycles each access was blocked
system.cache_small.avg_blocked_cycles::no_targets          nan                       # average number of cycles each access was blocked
system.cache_small.demand_mshr_misses::.cpu.inst         2973                       # number of demand (read+write) MSHR misses
system.cache_small.demand_mshr_misses::.cpu.data         3935                       # number of demand (read+write) MSHR misses
system.cache_small.demand_mshr_misses::total         6908                       # number of demand (read+write) MSHR misses
system.cache_small.overall_mshr_misses::.cpu.inst         2973                       # number of overall MSHR misses
system.cache_small.overall_mshr_misses::.cpu.data         3935                       # number of overall MSHR misses
system.cache_small.overall_mshr_misses::total         6908                       # number of overall MSHR misses
system.cache_small.demand_mshr_miss_latency::.cpu.inst    173511000                       # number of demand (read+write) MSHR miss cycles
system.cache_small.demand_mshr_miss_latency::.cpu.data    225430000                       # number of demand (read+write) MSHR miss cycles
system.cache_small.demand_mshr_miss_latency::total    398941000                       # number of demand (read+write) MSHR miss cycles
system.cache_small.overall_mshr_miss_latency::.cpu.inst    173511000                       # number of overall MSHR miss cycles
system.cache_small.overall_mshr_miss_latency::.cpu.data    225430000                       # number of overall MSHR miss cycles
system.cache_small.overall_mshr_miss_latency::total    398941000                       # number of overall MSHR miss cycles
system.cache_small.demand_mshr_miss_rate::.cpu.inst     0.093414                       # mshr miss rate for demand accesses
system.cache_small.demand_mshr_miss_rate::.cpu.data     0.376195                       # mshr miss rate for demand accesses
system.cache_small.demand_mshr_miss_rate::total     0.163364                       # mshr miss rate for demand accesses
system.cache_small.overall_mshr_miss_rate::.cpu.inst     0.093414                       # mshr miss rate for overall accesses
system.cache_small.overall_mshr_miss_rate::.cpu.data     0.376195                       # mshr miss rate for overall accesses
system.cache_small.overall_mshr_miss_rate::total     0.163364                       # mshr miss rate for overall accesses
system.cache_small.demand_avg_mshr_miss_latency::.cpu.inst 58362.260343                       # average overall mshr miss latency
system.cache_small.demand_avg_mshr_miss_latency::.cpu.data 57288.437103                       # average overall mshr miss latency
system.cache_small.demand_avg_mshr_miss_latency::total 57750.579039                       # average overall mshr miss latency
system.cache_small.overall_avg_mshr_miss_latency::.cpu.inst 58362.260343                       # average overall mshr miss latency
system.cache_small.overall_avg_mshr_miss_latency::.cpu.data 57288.437103                       # average overall mshr miss latency
system.cache_small.overall_avg_mshr_miss_latency::total 57750.579039                       # average overall mshr miss latency
system.cache_small.replacements                     0                       # number of replacements
system.cache_small.ReadReq_hits::.cpu.inst        28853                       # number of ReadReq hits
system.cache_small.ReadReq_hits::.cpu.data         6525                       # number of ReadReq hits
system.cache_small.ReadReq_hits::total          35378                       # number of ReadReq hits
system.cache_small.ReadReq_misses::.cpu.inst         2973                       # number of ReadReq misses
system.cache_small.ReadReq_misses::.cpu.data         3935                       # number of ReadReq misses
system.cache_small.ReadReq_misses::total         6908                       # number of ReadReq misses
system.cache_small.ReadReq_miss_latency::.cpu.inst    179457000                       # number of ReadReq miss cycles
system.cache_small.ReadReq_miss_latency::.cpu.data    233300000                       # number of ReadReq miss cycles
system.cache_small.ReadReq_miss_latency::total    412757000                       # number of ReadReq miss cycles
system.cache_small.ReadReq_accesses::.cpu.inst        31826                       # number of ReadReq accesses(hits+misses)
system.cache_small.ReadReq_accesses::.cpu.data        10460                       # number of ReadReq accesses(hits+misses)
system.cache_small.ReadReq_accesses::total        42286                       # number of ReadReq accesses(hits+misses)
system.cache_small.ReadReq_miss_rate::.cpu.inst     0.093414                       # miss rate for ReadReq accesses
system.cache_small.ReadReq_miss_rate::.cpu.data     0.376195                       # miss rate for ReadReq accesses
system.cache_small.ReadReq_miss_rate::total     0.163364                       # miss rate for ReadReq accesses
system.cache_small.ReadReq_avg_miss_latency::.cpu.inst 60362.260343                       # average ReadReq miss latency
system.cache_small.ReadReq_avg_miss_latency::.cpu.data 59288.437103                       # average ReadReq miss latency
system.cache_small.ReadReq_avg_miss_latency::total 59750.579039                       # average ReadReq miss latency
system.cache_small.ReadReq_mshr_misses::.cpu.inst         2973                       # number of ReadReq MSHR misses
system.cache_small.ReadReq_mshr_misses::.cpu.data         3935                       # number of ReadReq MSHR misses
system.cache_small.ReadReq_mshr_misses::total         6908                       # number of ReadReq MSHR misses
system.cache_small.ReadReq_mshr_miss_latency::.cpu.inst    173511000                       # number of ReadReq MSHR miss cycles
system.cache_small.ReadReq_mshr_miss_latency::.cpu.data    225430000                       # number of ReadReq MSHR miss cycles
system.cache_small.ReadReq_mshr_miss_latency::total    398941000                       # number of ReadReq MSHR miss cycles
system.cache_small.ReadReq_mshr_miss_rate::.cpu.inst     0.093414                       # mshr miss rate for ReadReq accesses
system.cache_small.ReadReq_mshr_miss_rate::.cpu.data     0.376195                       # mshr miss rate for ReadReq accesses
system.cache_small.ReadReq_mshr_miss_rate::total     0.163364                       # mshr miss rate for ReadReq accesses
system.cache_small.ReadReq_avg_mshr_miss_latency::.cpu.inst 58362.260343                       # average ReadReq mshr miss latency
system.cache_small.ReadReq_avg_mshr_miss_latency::.cpu.data 57288.437103                       # average ReadReq mshr miss latency
system.cache_small.ReadReq_avg_mshr_miss_latency::total 57750.579039                       # average ReadReq mshr miss latency
system.cache_small.WritebackDirty_hits::.writebacks         7570                       # number of WritebackDirty hits
system.cache_small.WritebackDirty_hits::total         7570                       # number of WritebackDirty hits
system.cache_small.WritebackDirty_accesses::.writebacks         7570                       # number of WritebackDirty accesses(hits+misses)
system.cache_small.WritebackDirty_accesses::total         7570                       # number of WritebackDirty accesses(hits+misses)
system.cache_small.power_state.pwrStateResidencyTicks::UNDEFINED   4820938000                       # Cumulative time (in ticks) in various power states
system.cache_small.tags.tagsinuse         3981.220347                       # Cycle average of tags in use
system.cache_small.tags.total_refs                  0                       # Total number of references to valid blocks.
system.cache_small.tags.sampled_refs                0                       # Sample count of references to valid blocks.
system.cache_small.tags.avg_refs                  nan                       # Average number of references to valid blocks.
system.cache_small.tags.warmup_cycle            76000                       # Cycle when the warmup percentage was hit.
system.cache_small.tags.occ_blocks::.cpu.inst  1599.582127                       # Average occupied blocks per requestor
system.cache_small.tags.occ_blocks::.cpu.data  2381.638220                       # Average occupied blocks per requestor
system.cache_small.tags.occ_percent::.cpu.inst     0.012204                       # Average percentage of cache occupancy
system.cache_small.tags.occ_percent::.cpu.data     0.018170                       # Average percentage of cache occupancy
system.cache_small.tags.occ_percent::total     0.030374                       # Average percentage of cache occupancy
system.cache_small.tags.occ_task_id_blocks::1024         6908                       # Occupied blocks per task id
system.cache_small.tags.age_task_id_blocks_1024::1           19                       # Occupied blocks per task id
system.cache_small.tags.age_task_id_blocks_1024::2          814                       # Occupied blocks per task id
system.cache_small.tags.age_task_id_blocks_1024::3         6075                       # Occupied blocks per task id
system.cache_small.tags.occ_task_id_percent::1024     0.052704                       # Percentage of cache occupancy per task id
system.cache_small.tags.tag_accesses            56764                       # Number of tag accesses
system.cache_small.tags.data_accesses           56764                       # Number of data accesses
system.cache_small.tags.power_state.pwrStateResidencyTicks::UNDEFINED   4820938000                       # Cumulative time (in ticks) in various power states
system.icache.demand_hits::.cpu.inst          1290556                       # number of demand (read+write) hits
system.icache.demand_hits::total              1290556                       # number of demand (read+write) hits
system.icache.overall_hits::.cpu.inst         1290556                       # number of overall hits
system.icache.overall_hits::total             1290556                       # number of overall hits
system.icache.demand_misses::.cpu.inst          41924                       # number of demand (read+write) misses
system.icache.demand_misses::total              41924                       # number of demand (read+write) misses
system.icache.overall_misses::.cpu.inst         41924                       # number of overall misses
system.icache.overall_misses::total             41924                       # number of overall misses
system.icache.demand_miss_latency::.cpu.inst    931113000                       # number of demand (read+write) miss cycles
system.icache.demand_miss_latency::total    931113000                       # number of demand (read+write) miss cycles
system.icache.overall_miss_latency::.cpu.inst    931113000                       # number of overall miss cycles
system.icache.overall_miss_latency::total    931113000                       # number of overall miss cycles
system.icache.demand_accesses::.cpu.inst      1332480                       # number of demand (read+write) accesses
system.icache.demand_accesses::total          1332480                       # number of demand (read+write) accesses
system.icache.overall_accesses::.cpu.inst      1332480                       # number of overall (read+write) accesses
system.icache.overall_accesses::total         1332480                       # number of overall (read+write) accesses
system.icache.demand_miss_rate::.cpu.inst     0.031463                       # miss rate for demand accesses
system.icache.demand_miss_rate::total        0.031463                       # miss rate for demand accesses
system.icache.overall_miss_rate::.cpu.inst     0.031463                       # miss rate for overall accesses
system.icache.overall_miss_rate::total       0.031463                       # miss rate for overall accesses
system.icache.demand_avg_miss_latency::.cpu.inst 22209.545845                       # average overall miss latency
system.icache.demand_avg_miss_latency::total 22209.545845                       # average overall miss latency
system.icache.overall_avg_miss_latency::.cpu.inst 22209.545845                       # average overall miss latency
system.icache.overall_avg_miss_latency::total 22209.545845                       # average overall miss latency
system.icache.blocked_cycles::no_mshrs              0                       # number of cycles access was blocked
system.icache.blocked_cycles::no_targets            0                       # number of cycles access was blocked
system.icache.blocked::no_mshrs                     0                       # number of cycles access was blocked
system.icache.blocked::no_targets                   0                       # number of cycles access was blocked
system.icache.avg_blocked_cycles::no_mshrs          nan                       # average number of cycles each access was blocked
system.icache.avg_blocked_cycles::no_targets          nan                       # average number of cycles each access was blocked
system.icache.demand_mshr_misses::.cpu.inst        41924                       # number of demand (read+write) MSHR misses
system.icache.demand_mshr_misses::total         41924                       # number of demand (read+write) MSHR misses
system.icache.overall_mshr_misses::.cpu.inst        41924                       # number of overall MSHR misses
system.icache.overall_mshr_misses::total        41924                       # number of overall MSHR misses
system.icache.demand_mshr_miss_latency::.cpu.inst    847267000                       # number of demand (read+write) MSHR miss cycles
system.icache.demand_mshr_miss_latency::total    847267000                       # number of demand (read+write) MSHR miss cycles
system.icache.overall_mshr_miss_latency::.cpu.inst    847267000                       # number of overall MSHR miss cycles
system.icache.overall_mshr_miss_latency::total    847267000                       # number of overall MSHR miss cycles
system.icache.demand_mshr_miss_rate::.cpu.inst     0.031463                       # mshr miss rate for demand accesses
system.icache.demand_mshr_miss_rate::total     0.031463                       # mshr miss rate for demand accesses
system.icache.overall_mshr_miss_rate::.cpu.inst     0.031463                       # mshr miss rate for overall accesses
system.icache.overall_mshr_miss_rate::total     0.031463                       # mshr miss rate for overall accesses
system.icache.demand_avg_mshr_miss_latency::.cpu.inst 20209.593550                       # average overall mshr miss latency
system.icache.demand_avg_mshr_miss_latency::total 20209.593550                       # average overall mshr miss latency
system.icache.overall_avg_mshr_miss_latency::.cpu.inst 20209.593550                       # average overall mshr miss latency
system.icache.overall_avg_mshr_miss_latency::total 20209.593550                       # average overall mshr miss latency
system.icache.replacements                      41667                       # number of replacements
system.icache.ReadReq_hits::.cpu.inst         1290556                       # number of ReadReq hits
system.icache.ReadReq_hits::total             1290556                       # number of ReadReq hits
system.icache.ReadReq_misses::.cpu.inst         41924                       # number of ReadReq misses
system.icache.ReadReq_misses::total             41924                       # number of ReadReq misses
system.icache.ReadReq_miss_latency::.cpu.inst    931113000                       # number of ReadReq miss cycles
system.icache.ReadReq_miss_latency::total    931113000                       # number of ReadReq miss cycles
system.icache.ReadReq_accesses::.cpu.inst      1332480                       # number of ReadReq accesses(hits+misses)
system.icache.ReadReq_accesses::total         1332480                       # number of ReadReq accesses(hits+misses)
system.icache.ReadReq_miss_rate::.cpu.inst     0.031463                       # miss rate for ReadReq accesses
system.icache.ReadReq_miss_rate::total       0.031463                       # miss rate for ReadReq accesses
system.icache.ReadReq_avg_miss_latency::.cpu.inst 22209.545845                       # average ReadReq miss latency
system.icache.ReadReq_avg_miss_latency::total 22209.545845                       # average ReadReq miss latency
system.icache.ReadReq_mshr_misses::.cpu.inst        41924                       # number of ReadReq MSHR misses
system.icache.ReadReq_mshr_misses::total        41924                       # number of ReadReq MSHR misses
system.icache.ReadReq_mshr_miss_latency::.cpu.inst    847267000                       # number of ReadReq MSHR miss cycles
system.icache.ReadReq_mshr_miss_latency::total    847267000                       # number of ReadReq MSHR miss cycles
system.icache.ReadReq_mshr_miss_rate::.cpu.inst     0.031463                       # mshr miss rate for ReadReq accesses
system.icache.ReadReq_mshr_miss_rate::total     0.031463                       # mshr miss rate for ReadReq accesses
system.icache.ReadReq_avg_mshr_miss_latency::.cpu.inst 20209.593550                       # average ReadReq mshr miss latency
system.icache.ReadReq_avg_mshr_miss_latency::total 20209.593550                       # average ReadReq mshr miss latency
system.icache.power_state.pwrStateResidencyTicks::UNDEFINED   4820938000                       # Cumulative time (in ticks) in various power states
system.icache.tags.tagsinuse               250.776155                       # Cycle average of tags in use
system.icache.tags.total_refs                 1322210                       # Total number of references to valid blocks.
system.icache.tags.sampled_refs                 41667                       # Sample count of references to valid blocks.
system.icache.tags.avg_refs                 31.732786                       # Average number of references to valid blocks.
system.icache.tags.warmup_cycle                 82000                       # Cycle when the warmup percentage was hit.
system.icache.tags.occ_blocks::.cpu.inst   250.776155                       # Average occupied blocks per requestor
system.icache.tags.occ_percent::.cpu.inst     0.979594                       # Average percentage of cache occupancy
system.icache.tags.occ_percent::total        0.979594                       # Average percentage of cache occupancy
system.icache.tags.occ_task_id_blocks::1024          256                       # Occupied blocks per task id
system.icache.tags.age_task_id_blocks_1024::0           70                       # Occupied blocks per task id
system.icache.tags.age_task_id_blocks_1024::1          151                       # Occupied blocks per task id
system.icache.tags.age_task_id_blocks_1024::2           31                       # Occupied blocks per task id
system.icache.tags.age_task_id_blocks_1024::3            4                       # Occupied blocks per task id
system.icache.tags.occ_task_id_percent::1024            1                       # Percentage of cache occupancy per task id
system.icache.tags.tag_accesses               1374403                       # Number of tag accesses
system.icache.tags.data_accesses              1374403                       # Number of data accesses
system.icache.tags.power_state.pwrStateResidencyTicks::UNDEFINED   4820938000                       # Cumulative time (in ticks) in various power states
system.membus.trans_dist::ReadReq                6908                       # Transaction distribution
system.membus.trans_dist::ReadResp               6908                       # Transaction distribution
system.membus.pkt_count_system.cache_small.mem_side::system.mem_ctrl.port        13816                       # Packet count per connected master and slave (bytes)
system.membus.pkt_count_system.cache_small.mem_side::total        13816                       # Packet count per connected master and slave (bytes)
system.membus.pkt_count::total                  13816                       # Packet count per connected master and slave (bytes)
system.membus.pkt_size_system.cache_small.mem_side::system.mem_ctrl.port       442112                       # Cumulative packet size per connected master and slave (bytes)
system.membus.pkt_size_system.cache_small.mem_side::total       442112                       # Cumulative packet size per connected master and slave (bytes)
system.membus.pkt_size::total                  442112                       # Cumulative packet size per connected master and slave (bytes)
system.membus.reqLayer2.occupancy             6908000                       # Layer occupancy (ticks)
system.membus.reqLayer2.utilization               0.1                       # Layer utilization (%)
system.membus.respLayer1.occupancy           36819250                       # Layer occupancy (ticks)
system.membus.respLayer1.utilization              0.8                       # Layer utilization (%)
system.membus.power_state.pwrStateResidencyTicks::UNDEFINED   4820938000                       # Cumulative time (in ticks) in various power states
system.mem_ctrl.bytes_read::.cpu.inst          190272                       # Number of bytes read from this memory
system.mem_ctrl.bytes_read::.cpu.data          251840                       # Number of bytes read from this memory
system.mem_ctrl.bytes_read::total              442112                       # Number of bytes read from this memory
system.mem_ctrl.bytes_inst_read::.cpu.inst       190272                       # Number of instructions bytes read from this memory
system.mem_ctrl.bytes_inst_read::total         190272                       # Number of instructions bytes read from this memory
system.mem_ctrl.num_reads::.cpu.inst             2973                       # Number of read requests responded to by this memory
system.mem_ctrl.num_reads::.cpu.data             3935                       # Number of read requests responded to by this memory
system.mem_ctrl.num_reads::total                 6908                       # Number of read requests responded to by this memory
system.mem_ctrl.bw_read::.cpu.inst           39467838                       # Total read bandwidth from this memory (bytes/s)
system.mem_ctrl.bw_read::.cpu.data           52238797                       # Total read bandwidth from this memory (bytes/s)
system.mem_ctrl.bw_read::total               91706635                       # Total read bandwidth from this memory (bytes/s)
system.mem_ctrl.bw_inst_read::.cpu.inst      39467838                       # Instruction read bandwidth from this memory (bytes/s)
system.mem_ctrl.bw_inst_read::total          39467838                       # Instruction read bandwidth from this memory (bytes/s)
system.mem_ctrl.bw_total::.cpu.inst          39467838                       # Total bandwidth to/from this memory (bytes/s)
system.mem_ctrl.bw_total::.cpu.data          52238797                       # Total bandwidth to/from this memory (bytes/s)
system.mem_ctrl.bw_total::total              91706635                       # Total bandwidth to/from this memory (bytes/s)
system.mem_ctrl.avgPriority_.cpu.inst::samples      2973.00                       # Average QoS priority value for accepted requests
system.mem_ctrl.avgPriority_.cpu.data::samples      3935.00                       # Average QoS priority value for accepted requests
system.mem_ctrl.priorityMinLatency       0.000000018750                       # per QoS priority minimum request to response latency (s)
system.mem_ctrl.priorityMaxLatency       0.000000578500                       # per QoS priority maximum request to response latency (s)
system.mem_ctrl.numReadWriteTurnArounds             0                       # Number of turnarounds from READ to WRITE
system.mem_ctrl.numWriteReadTurnArounds             0                       # Number of turnarounds from WRITE to READ
system.mem_ctrl.numStayReadState                15054                       # Number of times bus staying in READ state
system.mem_ctrl.numStayWriteState                   0                       # Number of times bus staying in WRITE state
system.mem_ctrl.readReqs                         6908                       # Number of read requests accepted
system.mem_ctrl.writeReqs                           0                       # Number of write requests accepted
system.mem_ctrl.readBursts                       6908                       # Number of DRAM read bursts, including those serviced by the write queue
system.mem_ctrl.writeBursts                         0                       # Number of DRAM write bursts, including those merged in the write queue
system.mem_ctrl.servicedByWrQ                       0                       # Number of DRAM read bursts serviced by the write queue
system.mem_ctrl.mergedWrBursts                      0                       # Number of DRAM write bursts merged with an existing one
system.mem_ctrl.neitherReadNorWriteReqs             0                       # Number of requests that are neither read nor write
system.mem_ctrl.perBankRdBursts::0                529                       # Per bank write bursts
system.mem_ctrl.perBankRdBursts::1                537                       # Per bank write bursts
system.mem_ctrl.perBankRdBursts::2                310                       # Per bank write bursts
system.mem_ctrl.perBankRdBursts::3                378                       # Per bank write bursts
system.mem_ctrl.perBankRdBursts::4                496                       # Per bank write bursts
system.mem_ctrl.perBankRdBursts::5                454                       # Per bank write bursts
system.mem_ctrl.perBankRdBursts::6                440                       # Per bank write bursts
system.mem_ctrl.perBankRdBursts::7                430                       # Per bank write bursts
system.mem_ctrl.perBankRdBursts::8                436                       # Per bank write bursts
system.mem_ctrl.perBankRdBursts::9                346                       # Per bank write bursts
system.mem_ctrl.perBankRdBursts::10               499                       # Per bank write bursts
system.mem_ctrl.perBankRdBursts::11               344                       # Per bank write bursts
system.mem_ctrl.perBankRdBursts::12               435                       # Per bank write bursts
system.mem_ctrl.perBankRdBursts::13               412                       # Per bank write bursts
system.mem_ctrl.perBankRdBursts::14               381                       # Per bank write bursts
system.mem_ctrl.perBankRdBursts::15               481                       # Per bank write bursts
system.mem_ctrl.perBankWrBursts::0                  0                       # Per bank write bursts
system.mem_ctrl.perBankWrBursts::1                  0                       # Per bank write bursts
system.mem_ctrl.perBankWrBursts::2                  0                       # Per bank write bursts
system.mem_ctrl.perBankWrBursts::3                  0                       # Per bank write bursts
system.mem_ctrl.perBankWrBursts::4                  0                       # Per bank write bursts
system.mem_ctrl.perBankWrBursts::5                  0                       # Per bank write bursts
system.mem_ctrl.perBankWrBursts::6                  0                       # Per bank write bursts
system.mem_ctrl.perBankWrBursts::7                  0                       # Per bank write bursts
system.mem_ctrl.perBankWrBursts::8                  0                       # Per bank write bursts
system.mem_ctrl.perBankWrBursts::9                  0                       # Per bank write bursts
system.mem_ctrl.perBankWrBursts::10                 0                       # Per bank write bursts
system.mem_ctrl.perBankWrBursts::11                 0                       # Per bank write bursts
system.mem_ctrl.perBankWrBursts::12                 0                       # Per bank write bursts
system.mem_ctrl.perBankWrBursts::13                 0                       # Per bank write bursts
system.mem_ctrl.perBankWrBursts::14                 0                       # Per bank write bursts
system.mem_ctrl.perBankWrBursts::15                 0                       # Per bank write bursts
system.mem_ctrl.avgRdQLen                        1.00                       # Average read queue length when enqueuing
system.mem_ctrl.avgWrQLen                        0.00                       # Average write queue length when enqueuing
system.mem_ctrl.totQLat                      52987500                       # Total ticks spent queuing
system.mem_ctrl.totBusLat                    34540000                       # Total ticks spent in databus transfers
system.mem_ctrl.totMemAccLat                182512500                       # Total ticks spent from burst creation until serviced by the DRAM
system.mem_ctrl.avgQLat                       7670.45                       # Average queueing delay per DRAM burst
system.mem_ctrl.avgBusLat                     5000.00                       # Average bus latency per DRAM burst
system.mem_ctrl.avgMemAccLat                 26420.45                       # Average memory access latency per DRAM burst
system.mem_ctrl.numRdRetry                          0                       # Number of times read queue was full causing retry
system.mem_ctrl.numWrRetry                          0                       # Number of times write queue was full causing retry
system.mem_ctrl.readRowHits                      4923                       # Number of row buffer hits during reads
system.mem_ctrl.writeRowHits                        0                       # Number of row buffer hits during writes
system.mem_ctrl.readRowHitRate                  71.27                       # Row buffer hit rate for reads
system.mem_ctrl.writeRowHitRate                   nan                       # Row buffer hit rate for writes
system.mem_ctrl.readPktSize::0                      0                       # Read request sizes (log2)
system.mem_ctrl.readPktSize::1                      0                       # Read request sizes (log2)
system.mem_ctrl.readPktSize::2                      0                       # Read request sizes (log2)
system.mem_ctrl.readPktSize::3                      0                       # Read request sizes (log2)
system.mem_ctrl.readPktSize::4                      0                       # Read request sizes (log2)
system.mem_ctrl.readPktSize::5                      0                       # Read request sizes (log2)
system.mem_ctrl.readPktSize::6                   6908                       # Read request sizes (log2)
system.mem_ctrl.writePktSize::0                     0                       # Write request sizes (log2)
system.mem_ctrl.writePktSize::1                     0                       # Write request sizes (log2)
system.mem_ctrl.writePktSize::2                     0                       # Write request sizes (log2)
system.mem_ctrl.writePktSize::3                     0                       # Write request sizes (log2)
system.mem_ctrl.writePktSize::4                     0                       # Write request sizes (log2)
system.mem_ctrl.writePktSize::5                     0                       # Write request sizes (log2)
system.mem_ctrl.writePktSize::6                     0                       # Write request sizes (log2)
system.mem_ctrl.rdQLenPdf::0                     6905                       # What read queue length does an incoming req see
system.mem_ctrl.rdQLenPdf::1                        3                       # What read queue length does an incoming req see
system.mem_ctrl.rdQLenPdf::2                        0                       # What read queue length does an incoming req see
system.mem_ctrl.rdQLenPdf::3                        0                       # What read queue length does an incoming req see
system.mem_ctrl.rdQLenPdf::4                        0                       # What read queue length does an incoming req see
system.mem_ctrl.rdQLenPdf::5                        0                       # What read queue length does an incoming req see
system.mem_ctrl.rdQLenPdf::6                        0                       # What read queue length does an incoming req see
system.mem_ctrl.rdQLenPdf::7                        0                       # What read queue length does an incoming req see
system.mem_ctrl.rdQLenPdf::8                        0                       # What read queue length does an incoming req see
system.mem_ctrl.rdQLenPdf::9                        0                       # What read queue length does an incoming req see
system.mem_ctrl.rdQLenPdf::10                       0                       # What read queue length does an incoming req see
system.mem_ctrl.rdQLenPdf::11                       0                       # What read queue length does an incoming req see
system.mem_ctrl.rdQLenPdf::12                       0                       # What read queue length does an incoming req see
system.mem_ctrl.rdQLenPdf::13                       0                       # What read queue length does an incoming req see
system.mem_ctrl.rdQLenPdf::14                       0                       # What read queue length does an incoming req see
system.mem_ctrl.rdQLenPdf::15                       0                       # What read queue length does an incoming req see
system.mem_ctrl.rdQLenPdf::16                       0                       # What read queue length does an incoming req see
system.mem_ctrl.rdQLenPdf::17                       0                       # What read queue length does an incoming req see
system.mem_ctrl.rdQLenPdf::18                       0                       # What read queue length does an incoming req see
system.mem_ctrl.rdQLenPdf::19                       0                       # What read queue length does an incoming req see
system.mem_ctrl.rdQLenPdf::20                       0                       # What read queue length does an incoming req see
system.mem_ctrl.rdQLenPdf::21                       0                       # What read queue length does an incoming req see
system.mem_ctrl.rdQLenPdf::22                       0                       # What read queue length does an incoming req see
system.mem_ctrl.rdQLenPdf::23                       0                       # What read queue length does an incoming req see
system.mem_ctrl.rdQLenPdf::24                       0                       # What read queue length does an incoming req see
system.mem_ctrl.rdQLenPdf::25                       0                       # What read queue length does an incoming req see
system.mem_ctrl.rdQLenPdf::26                       0                       # What read queue length does an incoming req see
system.mem_ctrl.rdQLenPdf::27                       0                       # What read queue length does an incoming req see
system.mem_ctrl.rdQLenPdf::28                       0                       # What read queue length does an incoming req see
system.mem_ctrl.rdQLenPdf::29                       0                       # What read queue length does an incoming req see
system.mem_ctrl.rdQLenPdf::30                       0                       # What read queue length does an incoming req see
system.mem_ctrl.rdQLenPdf::31                       0                       # What read queue length does an incoming req see
system.mem_ctrl.wrQLenPdf::0                        0                       # What write queue length does an incoming req see
system.mem_ctrl.wrQLenPdf::1                        0                       # What write queue length does an incoming req see
system.mem_ctrl.wrQLenPdf::2                        0                       # What write queue length does an incoming req see
system.mem_ctrl.wrQLenPdf::3                        0                       # What write queue length does an incoming req see
system.mem_ctrl.wrQLenPdf::4                        0                       # What write queue length does an incoming req see
system.mem_ctrl.wrQLenPdf::5                        0                       # What write queue length does an incoming req see
system.mem_ctrl.wrQLenPdf::6                        0                       # What write queue length does an incoming req see
system.mem_ctrl.wrQLenPdf::7                        0                       # What write queue length does an incoming req see
system.mem_ctrl.wrQLenPdf::8                        0                       # What write queue length does an incoming req see
system.mem_ctrl.wrQLenPdf::9                        0                       # What write queue length does an incoming req see
system.mem_ctrl.wrQLenPdf::10                       0                       # What write queue length does an incoming req see
system.mem_ctrl.wrQLenPdf::11                       0                       # What write queue length does an incoming req see
system.mem_ctrl.wrQLenPdf::12                       0                       # What write queue length does an incoming req see
system.mem_ctrl.wrQLenPdf::13                       0                       # What write queue length does an incoming req see
system.mem_ctrl.wrQLenPdf::14                       0                       # What write queue length does an incoming req see
system.mem_ctrl.wrQLenPdf::15                       0                       # What write queue length does an incoming req see
system.mem_ctrl.wrQLenPdf::16                       0                       # What write queue length does an incoming req see
system.mem_ctrl.wrQLenPdf::17                       0                       # What write queue length does an incoming req see
system.mem_ctrl.wrQLenPdf::18                       0                       # What write queue length does an incoming req see
system.mem_ctrl.wrQLenPdf::19                       0                       # What write queue length does an incoming req see
system.mem_ctrl.wrQLenPdf::20                       0                       # What write queue length does an incoming req see
system.mem_ctrl.wrQLenPdf::21                       0                       # What write queue length does an incoming req see
system.mem_ctrl.wrQLenPdf::22                       0                       # What write queue length does an incoming req see
system.mem_ctrl.wrQLenPdf::23                       0                       # What write queue length does an incoming req see
system.mem_ctrl.wrQLenPdf::24                       0                       # What write queue length does an incoming req see
system.mem_ctrl.wrQLenPdf::25                       0                       # What write queue length does an incoming req see
system.mem_ctrl.wrQLenPdf::26                       0                       # What write queue length does an incoming req see
system.mem_ctrl.wrQLenPdf::27                       0                       # What write queue length does an incoming req see
system.mem_ctrl.wrQLenPdf::28                       0                       # What write queue length does an incoming req see
system.mem_ctrl.wrQLenPdf::29                       0                       # What write queue length does an incoming req see
system.mem_ctrl.wrQLenPdf::30                       0                       # What write queue length does an incoming req see
system.mem_ctrl.wrQLenPdf::31                       0                       # What write queue length does an incoming req see
system.mem_ctrl.wrQLenPdf::32                       0                       # What write queue length does an incoming req see
system.mem_ctrl.wrQLenPdf::33                       0                       # What write queue length does an incoming req see
system.mem_ctrl.wrQLenPdf::34                       0                       # What write queue length does an incoming req see
system.mem_ctrl.wrQLenPdf::35                       0                       # What write queue length does an incoming req see
system.mem_ctrl.wrQLenPdf::36                       0                       # What write queue length does an incoming req see
system.mem_ctrl.wrQLenPdf::37                       0                       # What write queue length does an incoming req see
system.mem_ctrl.wrQLenPdf::38                       0                       # What write queue length does an incoming req see
system.mem_ctrl.wrQLenPdf::39                       0                       # What write queue length does an incoming req see
system.mem_ctrl.wrQLenPdf::40                       0                       # What write queue length does an incoming req see
system.mem_ctrl.wrQLenPdf::41                       0                       # What write queue length does an incoming req see
system.mem_ctrl.wrQLenPdf::42                       0                       # What write queue length does an incoming req see
system.mem_ctrl.wrQLenPdf::43                       0                       # What write queue length does an incoming req see
system.mem_ctrl.wrQLenPdf::44                       0                       # What write queue length does an incoming req see
system.mem_ctrl.wrQLenPdf::45                       0                       # What write queue length does an incoming req see
system.mem_ctrl.wrQLenPdf::46                       0                       # What write queue length does an incoming req see
system.mem_ctrl.wrQLenPdf::47                       0                       # What write queue length does an incoming req see
system.mem_ctrl.wrQLenPdf::48                       0                       # What write queue length does an incoming req see
system.mem_ctrl.wrQLenPdf::49                       0                       # What write queue length does an incoming req see
system.mem_ctrl.wrQLenPdf::50                       0                       # What write queue length does an incoming req see
system.mem_ctrl.wrQLenPdf::51                       0                       # What write queue length does an incoming req see
system.mem_ctrl.wrQLenPdf::52                       0                       # What write queue length does an incoming req see
system.mem_ctrl.wrQLenPdf::53                       0                       # What write queue length does an incoming req see
system.mem_ctrl.wrQLenPdf::54                       0                       # What write queue length does an incoming req see
system.mem_ctrl.wrQLenPdf::55                       0                       # What write queue length does an incoming req see
system.mem_ctrl.wrQLenPdf::56                       0                       # What write queue length does an incoming req see
system.mem_ctrl.wrQLenPdf::57                       0                       # What write queue length does an incoming req see
system.mem_ctrl.wrQLenPdf::58                       0                       # What write queue length does an incoming req see
system.mem_ctrl.wrQLenPdf::59                       0                       # What write queue length does an incoming req see
system.mem_ctrl.wrQLenPdf::60                       0                       # What write queue length does an incoming req see
system.mem_ctrl.wrQLenPdf::61                       0                       # What write queue length does an incoming req see
system.mem_ctrl.wrQLenPdf::62                       0                       # What write queue length does an incoming req see
system.mem_ctrl.wrQLenPdf::63                       0                       # What write queue length does an incoming req see
system.mem_ctrl.bytesPerActivate::samples         1985                       # Bytes accessed per row activation
system.mem_ctrl.bytesPerActivate::mean     222.726448                       # Bytes accessed per row activation
system.mem_ctrl.bytesPerActivate::gmean    142.993969                       # Bytes accessed per row activation
system.mem_ctrl.bytesPerActivate::stdev    256.392699                       # Bytes accessed per row activation
system.mem_ctrl.bytesPerActivate::0-127           818     41.21%     41.21% # Bytes accessed per row activation
system.mem_ctrl.bytesPerActivate::128-255          645     32.49%     73.70% # Bytes accessed per row activation
system.mem_ctrl.bytesPerActivate::256-383          185      9.32%     83.02% # Bytes accessed per row activation
system.mem_ctrl.bytesPerActivate::384-511           95      4.79%     87.81% # Bytes accessed per row activation
system.mem_ctrl.bytesPerActivate::512-639           57      2.87%     90.68% # Bytes accessed per row activation
system.mem_ctrl.bytesPerActivate::640-767           33      1.66%     92.34% # Bytes accessed per row activation
system.mem_ctrl.bytesPerActivate::768-895           21      1.06%     93.40% # Bytes accessed per row activation
system.mem_ctrl.bytesPerActivate::896-1023           16      0.81%     94.21% # Bytes accessed per row activation
system.mem_ctrl.bytesPerActivate::1024-1151          115      5.79%    100.00% # Bytes accessed per row activation
system.mem_ctrl.bytesPerActivate::total          1985                       # Bytes accessed per row activation
system.mem_ctrl.bytesReadDRAM                  442112                       # Total number of bytes read from DRAM
system.mem_ctrl.bytesReadWrQ                        0                       # Total number of bytes read from write queue
system.mem_ctrl.bytesWritten                        0                       # Total number of bytes written to DRAM
system.mem_ctrl.bytesReadSys                   442112                       # Total read bytes from the system interface side
system.mem_ctrl.bytesWrittenSys                     0                       # Total written bytes from the system interface side
system.mem_ctrl.avgRdBW                         91.71                       # Average DRAM read bandwidth in MiByte/s
system.mem_ctrl.avgWrBW                          0.00                       # Average achieved write bandwidth in MiByte/s
system.mem_ctrl.avgRdBWSys                      91.71                       # Average system read bandwidth in MiByte/s
system.mem_ctrl.avgWrBWSys                       0.00                       # Average system write bandwidth in MiByte/s
system.mem_ctrl.peakBW                       12800.00                       # Theoretical peak bandwidth in MiByte/s
system.mem_ctrl.busUtil                          0.72                       # Data bus utilization in percentage
system.mem_ctrl.busUtilRead                      0.72                       # Data bus utilization in percentage for reads
system.mem_ctrl.busUtilWrite                     0.00                       # Data bus utilization in percentage for writes
system.mem_ctrl.totGap                     4807286000                       # Total gap between requests
system.mem_ctrl.avgGap                      695901.27                       # Average gap between requests
system.mem_ctrl.masterReadBytes::.cpu.inst       190272                       # Per-master bytes read from memory
system.mem_ctrl.masterReadBytes::.cpu.data       251840                       # Per-master bytes read from memory
system.mem_ctrl.masterReadRate::.cpu.inst 39467838.001650296152                       # Per-master bytes read from memory rate (Bytes/sec)
system.mem_ctrl.masterReadRate::.cpu.data 52238796.682305388153                       # Per-master bytes read from memory rate (Bytes/sec)
system.mem_ctrl.masterReadAccesses::.cpu.inst         2973                       # Per-master read serviced memory accesses
system.mem_ctrl.masterReadAccesses::.cpu.data         3935                       # Per-master read serviced memory accesses
system.mem_ctrl.masterReadTotalLat::.cpu.inst     80339750                       # Per-master read total memory access latency
system.mem_ctrl.masterReadTotalLat::.cpu.data    102172750                       # Per-master read total memory access latency
system.mem_ctrl.masterReadAvgLat::.cpu.inst     27023.12                       # Per-master read average memory access latency
system.mem_ctrl.masterReadAvgLat::.cpu.data     25965.12                       # Per-master read average memory access latency
system.mem_ctrl.pageHitRate                     71.27                       # Row buffer hit rate, read and write combined
system.mem_ctrl.rank1.actEnergy               7361340                       # Energy for activate commands per rank (pJ)
system.mem_ctrl.rank1.preEnergy               3912645                       # Energy for precharge commands per rank (pJ)
system.mem_ctrl.rank1.readEnergy             23804760                       # Energy for read commands per rank (pJ)
system.mem_ctrl.rank1.writeEnergy                   0                       # Energy for write commands per rank (pJ)
system.mem_ctrl.rank1.refreshEnergy      380462160.000000                       # Energy for refresh commands per rank (pJ)
system.mem_ctrl.rank1.actBackEnergy        1134062310                       # Energy for active background per rank (pJ)
system.mem_ctrl.rank1.preBackEnergy         896240640                       # Energy for precharge background per rank (pJ)
system.mem_ctrl.rank1.actPowerDownEnergy            0                       # Energy for active power-down per rank (pJ)
system.mem_ctrl.rank1.prePowerDownEnergy            0                       # Energy for precharge power-down per rank (pJ)
system.mem_ctrl.rank1.selfRefreshEnergy             0                       # Energy for self refresh per rank (pJ)
system.mem_ctrl.rank1.totalEnergy          2445843855                       # Total energy per rank (pJ)
system.mem_ctrl.rank1.averagePower         507.337754                       # Core power per rank (mW)
system.mem_ctrl.rank1.totalIdleTime                 0                       # Total Idle time Per DRAM Rank
system.mem_ctrl.rank1.memoryStateTime::IDLE   2318810750                       # Time in different power states
system.mem_ctrl.rank1.memoryStateTime::REF    160940000                       # Time in different power states
system.mem_ctrl.rank1.memoryStateTime::SREF            0                       # Time in different power states
system.mem_ctrl.rank1.memoryStateTime::PRE_PDN            0                       # Time in different power states
system.mem_ctrl.rank1.memoryStateTime::ACT   2341187250                       # Time in different power states
system.mem_ctrl.rank1.memoryStateTime::ACT_PDN            0                       # Time in different power states
system.mem_ctrl.rank0.actEnergy               6811560                       # Energy for activate commands per rank (pJ)
system.mem_ctrl.rank0.preEnergy               3620430                       # Energy for precharge commands per rank (pJ)
system.mem_ctrl.rank0.readEnergy             25518360                       # Energy for read commands per rank (pJ)
system.mem_ctrl.rank0.writeEnergy                   0                       # Energy for write commands per rank (pJ)
system.mem_ctrl.rank0.refreshEnergy      380462160.000000                       # Energy for refresh commands per rank (pJ)
system.mem_ctrl.rank0.actBackEnergy         997399680                       # Energy for active background per rank (pJ)
system.mem_ctrl.rank0.preBackEnergy        1011324960                       # Energy for precharge background per rank (pJ)
system.mem_ctrl.rank0.actPowerDownEnergy            0                       # Energy for active power-down per rank (pJ)
system.mem_ctrl.rank0.prePowerDownEnergy            0                       # Energy for precharge power-down per rank (pJ)
system.mem_ctrl.rank0.selfRefreshEnergy             0                       # Energy for self refresh per rank (pJ)
system.mem_ctrl.rank0.totalEnergy          2425137150                       # Total energy per rank (pJ)
system.mem_ctrl.rank0.averagePower         503.042593                       # Core power per rank (mW)
system.mem_ctrl.rank0.totalIdleTime                 0                       # Total Idle time Per DRAM Rank
system.mem_ctrl.rank0.memoryStateTime::IDLE   2619222000                       # Time in different power states
system.mem_ctrl.rank0.memoryStateTime::REF    160940000                       # Time in different power states
system.mem_ctrl.rank0.memoryStateTime::SREF            0                       # Time in different power states
system.mem_ctrl.rank0.memoryStateTime::PRE_PDN            0                       # Time in different power states
system.mem_ctrl.rank0.memoryStateTime::ACT   2040776000                       # Time in different power states
system.mem_ctrl.rank0.memoryStateTime::ACT_PDN            0                       # Time in different power states
system.mem_ctrl.power_state.pwrStateResidencyTicks::UNDEFINED   4820938000                       # Cumulative time (in ticks) in various power states
system.cache_medium.blocked_cycles::no_mshrs            0                       # number of cycles access was blocked
system.cache_medium.blocked_cycles::no_targets            0                       # number of cycles access was blocked
system.cache_medium.blocked::no_mshrs               0                       # number of cycles access was blocked
system.cache_medium.blocked::no_targets             0                       # number of cycles access was blocked
system.cache_medium.avg_blocked_cycles::no_mshrs          nan                       # average number of cycles each access was blocked
system.cache_medium.avg_blocked_cycles::no_targets          nan                       # average number of cycles each access was blocked
system.cache_medium.replacements                    0                       # number of replacements
system.cache_medium.power_state.pwrStateResidencyTicks::UNDEFINED   4820938000                       # Cumulative time (in ticks) in various power states
system.cache_medium.tags.tagsinuse                  0                       # Cycle average of tags in use
system.cache_medium.tags.total_refs                 0                       # Total number of references to valid blocks.
system.cache_medium.tags.sampled_refs               0                       # Sample count of references to valid blocks.
system.cache_medium.tags.avg_refs                 nan                       # Average number of references to valid blocks.
system.cache_medium.tags.warmup_cycle               0                       # Cycle when the warmup percentage was hit.
system.cache_medium.tags.tag_accesses               0                       # Number of tag accesses
system.cache_medium.tags.data_accesses              0                       # Number of data accesses
system.cache_medium.tags.power_state.pwrStateResidencyTicks::UNDEFINED   4820938000                       # Cumulative time (in ticks) in various power states
system.clk_domain.clock                          1000                       # Clock period in ticks
system.clk_domain.voltage_domain.voltage            1                       # Voltage in Volts
system.dcache.demand_hits::.cpu.data           349620                       # number of demand (read+write) hits
system.dcache.demand_hits::total               349620                       # number of demand (read+write) hits
system.dcache.overall_hits::.cpu.data          350169                       # number of overall hits
system.dcache.overall_hits::total              350169                       # number of overall hits
system.dcache.demand_misses::.cpu.data          16420                       # number of demand (read+write) misses
system.dcache.demand_misses::total              16420                       # number of demand (read+write) misses
system.dcache.overall_misses::.cpu.data         16702                       # number of overall misses
system.dcache.overall_misses::total             16702                       # number of overall misses
system.dcache.demand_miss_latency::.cpu.data    498007000                       # number of demand (read+write) miss cycles
system.dcache.demand_miss_latency::total    498007000                       # number of demand (read+write) miss cycles
system.dcache.overall_miss_latency::.cpu.data    517990000                       # number of overall miss cycles
system.dcache.overall_miss_latency::total    517990000                       # number of overall miss cycles
system.dcache.demand_accesses::.cpu.data       366040                       # number of demand (read+write) accesses
system.dcache.demand_accesses::total           366040                       # number of demand (read+write) accesses
system.dcache.overall_accesses::.cpu.data       366871                       # number of overall (read+write) accesses
system.dcache.overall_accesses::total          366871                       # number of overall (read+write) accesses
system.dcache.demand_miss_rate::.cpu.data     0.044858                       # miss rate for demand accesses
system.dcache.demand_miss_rate::total        0.044858                       # miss rate for demand accesses
system.dcache.overall_miss_rate::.cpu.data     0.045526                       # miss rate for overall accesses
system.dcache.overall_miss_rate::total       0.045526                       # miss rate for overall accesses
system.dcache.demand_avg_miss_latency::.cpu.data 30329.293544                       # average overall miss latency
system.dcache.demand_avg_miss_latency::total 30329.293544                       # average overall miss latency
system.dcache.overall_avg_miss_latency::.cpu.data 31013.651060                       # average overall miss latency
system.dcache.overall_avg_miss_latency::total 31013.651060                       # average overall miss latency
system.dcache.blocked_cycles::no_mshrs              0                       # number of cycles access was blocked
system.dcache.blocked_cycles::no_targets            0                       # number of cycles access was blocked
system.dcache.blocked::no_mshrs                     0                       # number of cycles access was blocked
system.dcache.blocked::no_targets                   0                       # number of cycles access was blocked
system.dcache.avg_blocked_cycles::no_mshrs          nan                       # average number of cycles each access was blocked
system.dcache.avg_blocked_cycles::no_targets          nan                       # average number of cycles each access was blocked
system.dcache.writebacks::.writebacks            9112                       # number of writebacks
system.dcache.writebacks::total                  9112                       # number of writebacks
system.dcache.demand_mshr_misses::.cpu.data        16420                       # number of demand (read+write) MSHR misses
system.dcache.demand_mshr_misses::total         16420                       # number of demand (read+write) MSHR misses
system.dcache.overall_mshr_misses::.cpu.data        16702                       # number of overall MSHR misses
system.dcache.overall_mshr_misses::total        16702                       # number of overall MSHR misses
system.dcache.demand_mshr_miss_latency::.cpu.data    465167000                       # number of demand (read+write) MSHR miss cycles
system.dcache.demand_mshr_miss_latency::total    465167000                       # number of demand (read+write) MSHR miss cycles
system.dcache.overall_mshr_miss_latency::.cpu.data    484586000                       # number of overall MSHR miss cycles
system.dcache.overall_mshr_miss_latency::total    484586000                       # number of overall MSHR miss cycles
system.dcache.demand_mshr_miss_rate::.cpu.data     0.044858                       # mshr miss rate for demand accesses
system.dcache.demand_mshr_miss_rate::total     0.044858                       # mshr miss rate for demand accesses
system.dcache.overall_mshr_miss_rate::.cpu.data     0.045526                       # mshr miss rate for overall accesses
system.dcache.overall_mshr_miss_rate::total     0.045526                       # mshr miss rate for overall accesses
system.dcache.demand_avg_mshr_miss_latency::.cpu.data 28329.293544                       # average overall mshr miss latency
system.dcache.demand_avg_mshr_miss_latency::total 28329.293544                       # average overall mshr miss latency
system.dcache.overall_avg_mshr_miss_latency::.cpu.data 29013.651060                       # average overall mshr miss latency
system.dcache.overall_avg_mshr_miss_latency::total 29013.651060                       # average overall mshr miss latency
system.dcache.replacements                      16446                       # number of replacements
system.dcache.ReadReq_hits::.cpu.data          198908                       # number of ReadReq hits
system.dcache.ReadReq_hits::total              198908                       # number of ReadReq hits
system.dcache.ReadReq_misses::.cpu.data         11036                       # number of ReadReq misses
system.dcache.ReadReq_misses::total             11036                       # number of ReadReq misses
system.dcache.ReadReq_miss_latency::.cpu.data    222567000                       # number of ReadReq miss cycles
system.dcache.ReadReq_miss_latency::total    222567000                       # number of ReadReq miss cycles
system.dcache.ReadReq_accesses::.cpu.data       209944                       # number of ReadReq accesses(hits+misses)
system.dcache.ReadReq_accesses::total          209944                       # number of ReadReq accesses(hits+misses)
system.dcache.ReadReq_miss_rate::.cpu.data     0.052566                       # miss rate for ReadReq accesses
system.dcache.ReadReq_miss_rate::total       0.052566                       # miss rate for ReadReq accesses
system.dcache.ReadReq_avg_miss_latency::.cpu.data 20167.361363                       # average ReadReq miss latency
system.dcache.ReadReq_avg_miss_latency::total 20167.361363                       # average ReadReq miss latency
system.dcache.ReadReq_mshr_misses::.cpu.data        11036                       # number of ReadReq MSHR misses
system.dcache.ReadReq_mshr_misses::total        11036                       # number of ReadReq MSHR misses
system.dcache.ReadReq_mshr_miss_latency::.cpu.data    200495000                       # number of ReadReq MSHR miss cycles
system.dcache.ReadReq_mshr_miss_latency::total    200495000                       # number of ReadReq MSHR miss cycles
system.dcache.ReadReq_mshr_miss_rate::.cpu.data     0.052566                       # mshr miss rate for ReadReq accesses
system.dcache.ReadReq_mshr_miss_rate::total     0.052566                       # mshr miss rate for ReadReq accesses
system.dcache.ReadReq_avg_mshr_miss_latency::.cpu.data 18167.361363                       # average ReadReq mshr miss latency
system.dcache.ReadReq_avg_mshr_miss_latency::total 18167.361363                       # average ReadReq mshr miss latency
system.dcache.WriteReq_hits::.cpu.data         150712                       # number of WriteReq hits
system.dcache.WriteReq_hits::total             150712                       # number of WriteReq hits
system.dcache.WriteReq_misses::.cpu.data         5384                       # number of WriteReq misses
system.dcache.WriteReq_misses::total             5384                       # number of WriteReq misses
system.dcache.WriteReq_miss_latency::.cpu.data    275440000                       # number of WriteReq miss cycles
system.dcache.WriteReq_miss_latency::total    275440000                       # number of WriteReq miss cycles
[...]
system.dcache.tags.age_task_id_blocks_1024::2          124                       # Occupied blocks per task id
system.dcache.tags.age_task_id_blocks_1024::3           74                       # Occupied blocks per task id
system.dcache.tags.occ_task_id_percent::1024            1                       # Percentage of cache occupancy per task id
system.dcache.tags.tag_accesses               2799909                       # Number of tag accesses
system.dcache.tags.data_accesses              2799909                       # Number of data accesses
system.dcache.tags.power_state.pwrStateResidencyTicks::UNDEFINED  32611565000                       # Cumulative time (in ticks) in various power states
system.cache_large.blocked_cycles::no_mshrs            0                       # number of cycles access was blocked
system.cache_large.blocked_cycles::no_targets            0                       # number of cycles access was blocked
system.cache_large.blocked::no_mshrs                0                       # number of cycles access was blocked
system.cache_large.blocked::no_targets              0                       # number of cycles access was blocked
system.cache_large.avg_blocked_cycles::no_mshrs          nan                       # average number of cycles each access was blocked
system.cache_large.avg_blocked_cycles::no_targets          nan                       # average number of cycles each access was blocked
system.cache_large.replacements                     0                       # number of replacements
system.cache_large.power_state.pwrStateResidencyTicks::UNDEFINED  32611565000                       # Cumulative time (in ticks) in various power states
system.cache_large.tags.tagsinuse                   0                       # Cycle average of tags in use
system.cache_large.tags.total_refs                  0                       # Total number of references to valid blocks.
system.cache_large.tags.sampled_refs                0                       # Sample count of references to valid blocks.
system.cache_large.tags.avg_refs                  nan                       # Average number of references to valid blocks.
system.cache_large.tags.warmup_cycle                0                       # Cycle when the warmup percentage was hit.
system.cache_large.tags.tag_accesses                0                       # Number of tag accesses
system.cache_large.tags.data_accesses               0                       # Number of data accesses
system.cache_large.tags.power_state.pwrStateResidencyTicks::UNDEFINED  32611565000                       # Cumulative time (in ticks) in various power states
system.l2cache.demand_hits::.cpu.inst           96271                       # number of demand (read+write) hits
system.l2cache.demand_hits::.cpu.data           44309                       # number of demand (read+write) hits
system.l2cache.demand_hits::total              140580                       # number of demand (read+write) hits
system.l2cache.overall_hits::.cpu.inst          96271                       # number of overall hits
system.l2cache.overall_hits::.cpu.data          44309                       # number of overall hits
system.l2cache.overall_hits::total             140580                       # number of overall hits
system.l2cache.demand_misses::.cpu.inst        233757                       # number of demand (read+write) misses
system.l2cache.demand_misses::.cpu.data         59778                       # number of demand (read+write) misses
system.l2cache.demand_misses::total            293535                       # number of demand (read+write) misses
system.l2cache.overall_misses::.cpu.inst       233757                       # number of overall misses
system.l2cache.overall_misses::.cpu.data        59778                       # number of overall misses
system.l2cache.overall_misses::total           293535                       # number of overall misses
system.l2cache.demand_miss_latency::.cpu.inst   3337867000                       # number of demand (read+write) miss cycles
system.l2cache.demand_miss_latency::.cpu.data   1306370000                       # number of demand (read+write) miss cycles
system.l2cache.demand_miss_latency::total   4644237000                       # number of demand (read+write) miss cycles
system.l2cache.overall_miss_latency::.cpu.inst   3337867000                       # number of overall miss cycles
system.l2cache.overall_miss_latency::.cpu.data   1306370000                       # number of overall miss cycles
system.l2cache.overall_miss_latency::total   4644237000                       # number of overall miss cycles
system.l2cache.demand_accesses::.cpu.inst       330028                       # number of demand (read+write) accesses
system.l2cache.demand_accesses::.cpu.data       104087                       # number of demand (read+write) accesses
system.l2cache.demand_accesses::total          434115                       # number of demand (read+write) accesses
system.l2cache.overall_accesses::.cpu.inst       330028                       # number of overall (read+write) accesses
system.l2cache.overall_accesses::.cpu.data       104087                       # number of overall (read+write) accesses
system.l2cache.overall_accesses::total         434115                       # number of overall (read+write) accesses
system.l2cache.demand_miss_rate::.cpu.inst     0.708294                       # miss rate for demand accesses
system.l2cache.demand_miss_rate::.cpu.data     0.574308                       # miss rate for demand accesses
system.l2cache.demand_miss_rate::total       0.676169                       # miss rate for demand accesses
system.l2cache.overall_miss_rate::.cpu.inst     0.708294                       # miss rate for overall accesses
system.l2cache.overall_miss_rate::.cpu.data     0.574308                       # miss rate for overall accesses
system.l2cache.overall_miss_rate::total      0.676169                       # miss rate for overall accesses
system.l2cache.demand_avg_miss_latency::.cpu.inst 14279.217307                       # average overall miss latency
system.l2cache.demand_avg_miss_latency::.cpu.data 21853.691994                       # average overall miss latency
system.l2cache.demand_avg_miss_latency::total 15821.748684                       # average overall miss latency
system.l2cache.overall_avg_miss_latency::.cpu.inst 14279.217307                       # average overall miss latency
system.l2cache.overall_avg_miss_latency::.cpu.data 21853.691994                       # average overall miss latency
system.l2cache.overall_avg_miss_latency::total 15821.748684                       # average overall miss latency
system.l2cache.blocked_cycles::no_mshrs             0                       # number of cycles access was blocked
system.l2cache.blocked_cycles::no_targets            0                       # number of cycles access was blocked
system.l2cache.blocked::no_mshrs                    0                       # number of cycles access was blocked
system.l2cache.blocked::no_targets                  0                       # number of cycles access was blocked
system.l2cache.avg_blocked_cycles::no_mshrs          nan                       # average number of cycles each access was blocked
system.l2cache.avg_blocked_cycles::no_targets          nan                       # average number of cycles each access was blocked
system.l2cache.writebacks::.writebacks          39310                       # number of writebacks
system.l2cache.writebacks::total                39310                       # number of writebacks
system.l2cache.demand_mshr_misses::.cpu.inst       233757                       # number of demand (read+write) MSHR misses
system.l2cache.demand_mshr_misses::.cpu.data        59778                       # number of demand (read+write) MSHR misses
system.l2cache.demand_mshr_misses::total       293535                       # number of demand (read+write) MSHR misses
system.l2cache.overall_mshr_misses::.cpu.inst       233757                       # number of overall MSHR misses
system.l2cache.overall_mshr_misses::.cpu.data        59778                       # number of overall MSHR misses
system.l2cache.overall_mshr_misses::total       293535                       # number of overall MSHR misses
system.l2cache.demand_mshr_miss_latency::.cpu.inst   2870353000                       # number of demand (read+write) MSHR miss cycles
system.l2cache.demand_mshr_miss_latency::.cpu.data   1186814000                       # number of demand (read+write) MSHR miss cycles
system.l2cache.demand_mshr_miss_latency::total   4057167000                       # number of demand (read+write) MSHR miss cycles
system.l2cache.overall_mshr_miss_latency::.cpu.inst   2870353000                       # number of overall MSHR miss cycles
system.l2cache.overall_mshr_miss_latency::.cpu.data   1186814000                       # number of overall MSHR miss cycles
system.l2cache.overall_mshr_miss_latency::total   4057167000                       # number of overall MSHR miss cycles
system.l2cache.demand_mshr_miss_rate::.cpu.inst     0.708294                       # mshr miss rate for demand accesses
system.l2cache.demand_mshr_miss_rate::.cpu.data     0.574308                       # mshr miss rate for demand accesses
system.l2cache.demand_mshr_miss_rate::total     0.676169                       # mshr miss rate for demand accesses
system.l2cache.overall_mshr_miss_rate::.cpu.inst     0.708294                       # mshr miss rate for overall accesses
system.l2cache.overall_mshr_miss_rate::.cpu.data     0.574308                       # mshr miss rate for overall accesses
system.l2cache.overall_mshr_miss_rate::total     0.676169                       # mshr miss rate for overall accesses
system.l2cache.demand_avg_mshr_miss_latency::.cpu.inst 12279.217307                       # average overall mshr miss latency
system.l2cache.demand_avg_mshr_miss_latency::.cpu.data 19853.691994                       # average overall mshr miss latency
system.l2cache.demand_avg_mshr_miss_latency::total 13821.748684                       # average overall mshr miss latency
system.l2cache.overall_avg_mshr_miss_latency::.cpu.inst 12279.217307                       # average overall mshr miss latency
system.l2cache.overall_avg_mshr_miss_latency::.cpu.data 19853.691994                       # average overall mshr miss latency
system.l2cache.overall_avg_mshr_miss_latency::total 13821.748684                       # average overall mshr miss latency
system.l2cache.replacements                    325163                       # number of replacements
system.l2cache.ReadReq_hits::.cpu.inst          96271                       # number of ReadReq hits
system.l2cache.ReadReq_hits::.cpu.data          44309                       # number of ReadReq hits
system.l2cache.ReadReq_hits::total             140580                       # number of ReadReq hits
system.l2cache.ReadReq_misses::.cpu.inst       233757                       # number of ReadReq misses
system.l2cache.ReadReq_misses::.cpu.data        59778                       # number of ReadReq misses
system.l2cache.ReadReq_misses::total           293535                       # number of ReadReq misses
system.l2cache.ReadReq_miss_latency::.cpu.inst   3337867000                       # number of ReadReq miss cycles
system.l2cache.ReadReq_miss_latency::.cpu.data   1306370000                       # number of ReadReq miss cycles
system.l2cache.ReadReq_miss_latency::total   4644237000                       # number of ReadReq miss cycles
system.l2cache.ReadReq_accesses::.cpu.inst       330028                       # number of ReadReq accesses(hits+misses)
system.l2cache.ReadReq_accesses::.cpu.data       104087                       # number of ReadReq accesses(hits+misses)
system.l2cache.ReadReq_accesses::total         434115                       # number of ReadReq accesses(hits+misses)
system.l2cache.ReadReq_miss_rate::.cpu.inst     0.708294                       # miss rate for ReadReq accesses
system.l2cache.ReadReq_miss_rate::.cpu.data     0.574308                       # miss rate for ReadReq accesses
system.l2cache.ReadReq_miss_rate::total      0.676169                       # miss rate for ReadReq accesses
system.l2cache.ReadReq_avg_miss_latency::.cpu.inst 14279.217307                       # average ReadReq miss latency
system.l2cache.ReadReq_avg_miss_latency::.cpu.data 21853.691994                       # average ReadReq miss latency
system.l2cache.ReadReq_avg_miss_latency::total 15821.748684                       # average ReadReq miss latency
system.l2cache.ReadReq_mshr_misses::.cpu.inst       233757                       # number of ReadReq MSHR misses
system.l2cache.ReadReq_mshr_misses::.cpu.data        59778                       # number of ReadReq MSHR misses
system.l2cache.ReadReq_mshr_misses::total       293535                       # number of ReadReq MSHR misses
system.l2cache.ReadReq_mshr_miss_latency::.cpu.inst   2870353000                       # number of ReadReq MSHR miss cycles
system.l2cache.ReadReq_mshr_miss_latency::.cpu.data   1186814000                       # number of ReadReq MSHR miss cycles
system.l2cache.ReadReq_mshr_miss_latency::total   4057167000                       # number of ReadReq MSHR miss cycles
system.l2cache.ReadReq_mshr_miss_rate::.cpu.inst     0.708294                       # mshr miss rate for ReadReq accesses
system.l2cache.ReadReq_mshr_miss_rate::.cpu.data     0.574308                       # mshr miss rate for ReadReq accesses
system.l2cache.ReadReq_mshr_miss_rate::total     0.676169                       # mshr miss rate for ReadReq accesses
system.l2cache.ReadReq_avg_mshr_miss_latency::.cpu.inst 12279.217307                       # average ReadReq mshr miss latency
system.l2cache.ReadReq_avg_mshr_miss_latency::.cpu.data 19853.691994                       # average ReadReq mshr miss latency
system.l2cache.ReadReq_avg_mshr_miss_latency::total 13821.748684                       # average ReadReq mshr miss latency
system.l2cache.WritebackDirty_hits::.writebacks        50242                       # number of WritebackDirty hits
system.l2cache.WritebackDirty_hits::total        50242                       # number of WritebackDirty hits
system.l2cache.WritebackDirty_accesses::.writebacks        50242                       # number of WritebackDirty accesses(hits+misses)
system.l2cache.WritebackDirty_accesses::total        50242                       # number of WritebackDirty accesses(hits+misses)
system.l2cache.power_state.pwrStateResidencyTicks::UNDEFINED  32611565000                       # Cumulative time (in ticks) in various power states
system.l2cache.tags.tagsinuse              511.181850                       # Cycle average of tags in use
system.l2cache.tags.total_refs                 484357                       # Total number of references to valid blocks.
system.l2cache.tags.sampled_refs               325675                       # Sample count of references to valid blocks.
system.l2cache.tags.avg_refs                 1.487240                       # Average number of references to valid blocks.
system.l2cache.tags.warmup_cycle                78000                       # Cycle when the warmup percentage was hit.
system.l2cache.tags.occ_blocks::.writebacks    75.996606                       # Average occupied blocks per requestor
system.l2cache.tags.occ_blocks::.cpu.inst   289.297574                       # Average occupied blocks per requestor
system.l2cache.tags.occ_blocks::.cpu.data   145.887670                       # Average occupied blocks per requestor
system.l2cache.tags.occ_percent::.writebacks     0.148431                       # Average percentage of cache occupancy
system.l2cache.tags.occ_percent::.cpu.inst     0.565034                       # Average percentage of cache occupancy
system.l2cache.tags.occ_percent::.cpu.data     0.284937                       # Average percentage of cache occupancy
system.l2cache.tags.occ_percent::total       0.998402                       # Average percentage of cache occupancy
system.l2cache.tags.occ_task_id_blocks::1024          512                       # Occupied blocks per task id
system.l2cache.tags.age_task_id_blocks_1024::0           46                       # Occupied blocks per task id
system.l2cache.tags.age_task_id_blocks_1024::1          171                       # Occupied blocks per task id
system.l2cache.tags.age_task_id_blocks_1024::2          143                       # Occupied blocks per task id
system.l2cache.tags.age_task_id_blocks_1024::3          152                       # Occupied blocks per task id
system.l2cache.tags.occ_task_id_percent::1024            1                       # Percentage of cache occupancy per task id
system.l2cache.tags.tag_accesses               810032                       # Number of tag accesses
system.l2cache.tags.data_accesses              810032                       # Number of data accesses
system.l2cache.tags.power_state.pwrStateResidencyTicks::UNDEFINED  32611565000                       # Cumulative time (in ticks) in various power states
system.l2bar.trans_dist::ReadReq               434115                       # Transaction distribution
system.l2bar.trans_dist::ReadResp              434115                       # Transaction distribution
system.l2bar.trans_dist::WritebackDirty         50242                       # Transaction distribution
system.l2bar.pkt_count_system.dcache.mem_side::system.l2cache.cpu_side       258416                       # Packet count per connected master and slave (bytes)
system.l2bar.pkt_count_system.icache.mem_side::system.l2cache.cpu_side       660056                       # Packet count per connected master and slave (bytes)
system.l2bar.pkt_count::total                  918472                       # Packet count per connected master and slave (bytes)
system.l2bar.pkt_size_system.dcache.mem_side::system.l2cache.cpu_side      9877056                       # Cumulative packet size per connected master and slave (bytes)
system.l2bar.pkt_size_system.icache.mem_side::system.l2cache.cpu_side     21121792                       # Cumulative packet size per connected master and slave (bytes)
system.l2bar.pkt_size::total                 30998848                       # Cumulative packet size per connected master and slave (bytes)
system.l2bar.respLayer1.occupancy          1650140000                       # Layer occupancy (ticks)
system.l2bar.respLayer1.utilization               5.1                       # Layer utilization (%)
system.l2bar.reqLayer0.occupancy            685325000                       # Layer occupancy (ticks)
system.l2bar.reqLayer0.utilization                2.1                       # Layer utilization (%)
system.l2bar.respLayer0.occupancy           520435000                       # Layer occupancy (ticks)
system.l2bar.respLayer0.utilization               1.6                       # Layer utilization (%)
system.l2bar.power_state.pwrStateResidencyTicks::UNDEFINED  32611565000                       # Cumulative time (in ticks) in various power states
system.cpu.dtb.walker.power_state.pwrStateResidencyTicks::UNDEFINED  32611565000                       # Cumulative time (in ticks) in various power states
system.cpu.interrupts.clk_domain.clock          16000                       # Clock period in ticks
system.cpu.itb.walker.power_state.pwrStateResidencyTicks::UNDEFINED  32611565000                       # Cumulative time (in ticks) in various power states
system.cpu.power_state.numTransitions               1                       # Number of power state transitions
system.cpu.power_state.pwrStateResidencyTicks::ON  32611565000                       # Cumulative time (in ticks) in various power states

---------- End Simulation Statistics   ----------
