
---------- Begin Simulation Statistics ----------
final_tick                                 3750125000                       # Number of ticks from beginning of simulation (restored from checkpoints and never reset)
host_inst_rate                                 115542                       # Simulator instruction rate (inst/s)
host_mem_usage                               34375440                       # Number of bytes of host memory used
host_op_rate                                   201707                       # Simulator op (including micro ops) rate (op/s)
host_seconds                                     8.71                       # Real time elapsed on the host
host_tick_rate                              430712236                       # Simulator tick rate (ticks/s)
sim_freq                                 1000000000000                       # Frequency of simulated ticks
sim_insts                                     1005967                       # Number of instructions simulated
sim_ops                                       1756206                       # Number of ops (including micro ops) simulated
sim_seconds                                  0.003750                       # Number of seconds simulated
sim_ticks                                  3750125000                       # Number of ticks simulated
system.cpu.Branches                            175664                       # Number of branches fetched
system.cpu.committedInsts                     1005967                       # Number of instructions committed
system.cpu.committedOps                       1756206                       # Number of ops (including micro ops) committed
system.cpu.dtb.rdAccesses                      242818                       # TLB accesses on read requests
system.cpu.dtb.rdMisses                            40                       # TLB misses on read requests
system.cpu.dtb.wrAccesses                      109650                       # TLB accesses on write requests
system.cpu.dtb.wrMisses                            50                       # TLB misses on write requests
system.cpu.idle_fraction                            0                       # Percentage of idle cycles
system.cpu.itb.rdAccesses                           0                       # TLB accesses on read requests
system.cpu.itb.rdMisses                             0                       # TLB misses on read requests
system.cpu.itb.wrAccesses                     1318966                       # TLB accesses on write requests
system.cpu.itb.wrMisses                           197                       # TLB misses on write requests
system.cpu.not_idle_fraction                        1                       # Percentage of non-idle cycles
system.cpu.numCycles                          3750114                       # number of cpu cycles simulated
system.cpu.numWorkItemsCompleted                    0                       # number of work items this cpu completed
system.cpu.numWorkItemsStarted                      0                       # number of work items this cpu started
system.cpu.num_busy_cycles                    3750114                       # Number of busy cycles
system.cpu.num_cc_register_reads               790039                       # number of times the CC registers were read
system.cpu.num_cc_register_writes              614436                       # number of times the CC registers were written
system.cpu.num_conditional_control_insts       125681                       # number of instructions that are conditional controls
system.cpu.num_fp_alu_accesses                 228755                       # Number of float alu accesses
system.cpu.num_fp_insts                        228755                       # number of float instructions
system.cpu.num_fp_register_reads               298240                       # number of times the floating registers were read
system.cpu.num_fp_register_writes              191100                       # number of times the floating registers were written
system.cpu.num_func_calls                       39256                       # number of times a function call or return occured
system.cpu.num_idle_cycles                          0                       # Number of idle cycles
system.cpu.num_int_alu_accesses               1632283                       # Number of integer alu accesses
system.cpu.num_int_insts                      1632283                       # number of integer instructions
system.cpu.num_int_register_reads             3379522                       # number of times the integer registers were read
system.cpu.num_int_register_writes            1419325                       # number of times the integer registers were written
system.cpu.num_load_insts                      242790                       # Number of load instructions
system.cpu.num_mem_refs                        352409                       # number of memory refs
system.cpu.num_store_insts                     109619                       # Number of store instructions
system.cpu.num_vec_alu_accesses                     0                       # Number of vector alu accesses
system.cpu.num_vec_insts                            0                       # number of vector instructions
system.cpu.num_vec_register_reads                   0                       # number of times the vector registers were read
system.cpu.num_vec_register_writes                  0                       # number of times the vector registers were written
system.cpu.op_class::No_OpClass                 13820      0.79%      0.79% # Class of executed instruction
system.cpu.op_class::IntAlu                   1218945     69.41%     70.19% # Class of executed instruction
system.cpu.op_class::IntMult                    11643      0.66%     70.86% # Class of executed instruction
system.cpu.op_class::IntDiv                     73003      4.16%     75.01% # Class of executed instruction
system.cpu.op_class::FloatAdd                     141      0.01%     75.02% # Class of executed instruction
system.cpu.op_class::FloatCmp                       0      0.00%     75.02% # Class of executed instruction
system.cpu.op_class::FloatCvt                       0      0.00%     75.02% # Class of executed instruction
system.cpu.op_class::FloatMult                      0      0.00%     75.02% # Class of executed instruction
system.cpu.op_class::FloatMultAcc                   0      0.00%     75.02% # Class of executed instruction
system.cpu.op_class::FloatDiv                       0      0.00%     75.02% # Class of executed instruction
system.cpu.op_class::FloatMisc                      0      0.00%     75.02% # Class of executed instruction
system.cpu.op_class::FloatSqrt                      0      0.00%     75.02% # Class of executed instruction
system.cpu.op_class::SimdAdd                       26      0.00%     75.02% # Class of executed instruction
system.cpu.op_class::SimdAddAcc                     0      0.00%     75.02% # Class of executed instruction
system.cpu.op_class::SimdAlu                    11254      0.64%     75.66% # Class of executed instruction
system.cpu.op_class::SimdCmp                        0      0.00%     75.66% # Class of executed instruction
system.cpu.op_class::SimdCvt                      382      0.02%     75.69% # Class of executed instruction
system.cpu.op_class::SimdMisc                    3927      0.22%     75.91% # Class of executed instruction
system.cpu.op_class::SimdMult                       0      0.00%     75.91% # Class of executed instruction
system.cpu.op_class::SimdMultAcc                    0      0.00%     75.91% # Class of executed instruction
system.cpu.op_class::SimdShift                      0      0.00%     75.91% # Class of executed instruction
system.cpu.op_class::SimdShiftAcc                   0      0.00%     75.91% # Class of executed instruction
system.cpu.op_class::SimdDiv                        0      0.00%     75.91% # Class of executed instruction
system.cpu.op_class::SimdSqrt                       0      0.00%     75.91% # Class of executed instruction
system.cpu.op_class::SimdFloatAdd               23154      1.32%     77.23% # Class of executed instruction
system.cpu.op_class::SimdFloatAlu                   0      0.00%     77.23% # Class of executed instruction
system.cpu.op_class::SimdFloatCmp                   0      0.00%     77.23% # Class of executed instruction
system.cpu.op_class::SimdFloatCvt                7810      0.44%     77.67% # Class of executed instruction
system.cpu.op_class::SimdFloatDiv                 224      0.01%     77.69% # Class of executed instruction
system.cpu.op_class::SimdFloatMisc                  0      0.00%     77.69% # Class of executed instruction
system.cpu.op_class::SimdFloatMult              39488      2.25%     79.93% # Class of executed instruction
system.cpu.op_class::SimdFloatMultAcc               0      0.00%     79.93% # Class of executed instruction
system.cpu.op_class::SimdFloatSqrt                  0      0.00%     79.93% # Class of executed instruction
system.cpu.op_class::SimdReduceAdd                  0      0.00%     79.93% # Class of executed instruction
system.cpu.op_class::SimdReduceAlu                  0      0.00%     79.93% # Class of executed instruction
system.cpu.op_class::SimdReduceCmp                  0      0.00%     79.93% # Class of executed instruction
system.cpu.op_class::SimdFloatReduceAdd             0      0.00%     79.93% # Class of executed instruction
system.cpu.op_class::SimdFloatReduceCmp             0      0.00%     79.93% # Class of executed instruction
system.cpu.op_class::SimdAes                        0      0.00%     79.93% # Class of executed instruction
system.cpu.op_class::SimdAesMix                     0      0.00%     79.93% # Class of executed instruction
system.cpu.op_class::SimdSha1Hash                   0      0.00%     79.93% # Class of executed instruction
system.cpu.op_class::SimdSha1Hash2                  0      0.00%     79.93% # Class of executed instruction
system.cpu.op_class::SimdSha256Hash                 0      0.00%     79.93% # Class of executed instruction
system.cpu.op_class::SimdSha256Hash2                0      0.00%     79.93% # Class of executed instruction
system.cpu.op_class::SimdShaSigma2                  0      0.00%     79.93% # Class of executed instruction
system.cpu.op_class::SimdShaSigma3                  0      0.00%     79.93% # Class of executed instruction
system.cpu.op_class::SimdPredAlu                    0      0.00%     79.93% # Class of executed instruction
system.cpu.op_class::MemRead                   149285      8.50%     88.43% # Class of executed instruction
system.cpu.op_class::MemWrite                   77448      4.41%     92.84% # Class of executed instruction
system.cpu.op_class::FloatMemRead               93505      5.32%     98.17% # Class of executed instruction
system.cpu.op_class::FloatMemWrite              32171      1.83%    100.00% # Class of executed instruction
system.cpu.op_class::IprAccess                      0      0.00%    100.00% # Class of executed instruction
system.cpu.op_class::InstPrefetch                   0      0.00%    100.00% # Class of executed instruction
system.cpu.op_class::total                    1756226                       # Class of executed instruction
system.cpu.workload.numSyscalls                    16                       # Number of system calls
system.dynamic_cache.flushTicks                     0                       # Ticks taken to flush
system.dynamic_cache.numFlushes                     0                       # Number of Flushes Taken
system.cache_small.demand_hits::.cpu.inst         1008                       # number of demand (read+write) hits
system.cache_small.demand_hits::.cpu.data         1709                       # number of demand (read+write) hits
system.cache_small.demand_hits::total            2717                       # number of demand (read+write) hits
system.cache_small.overall_hits::.cpu.inst         1008                       # number of overall hits
system.cache_small.overall_hits::.cpu.data         1709                       # number of overall hits
system.cache_small.overall_hits::total           2717                       # number of overall hits
system.cache_small.demand_misses::.cpu.inst         2205                       # number of demand (read+write) misses
system.cache_small.demand_misses::.cpu.data         1926                       # number of demand (read+write) misses
system.cache_small.demand_misses::total          4131                       # number of demand (read+write) misses
system.cache_small.overall_misses::.cpu.inst         2205                       # number of overall misses
system.cache_small.overall_misses::.cpu.data         1926                       # number of overall misses
system.cache_small.overall_misses::total         4131                       # number of overall misses
system.cache_small.demand_miss_latency::.cpu.inst    132442000                       # number of demand (read+write) miss cycles
system.cache_small.demand_miss_latency::.cpu.data    113342000                       # number of demand (read+write) miss cycles
system.cache_small.demand_miss_latency::total    245784000                       # number of demand (read+write) miss cycles
system.cache_small.overall_miss_latency::.cpu.inst    132442000                       # number of overall miss cycles
system.cache_small.overall_miss_latency::.cpu.data    113342000                       # number of overall miss cycles
system.cache_small.overall_miss_latency::total    245784000                       # number of overall miss cycles
system.cache_small.demand_accesses::.cpu.inst         3213                       # number of demand (read+write) accesses
system.cache_small.demand_accesses::.cpu.data         3635                       # number of demand (read+write) accesses
system.cache_small.demand_accesses::total         6848                       # number of demand (read+write) accesses
system.cache_small.overall_accesses::.cpu.inst         3213                       # number of overall (read+write) accesses
system.cache_small.overall_accesses::.cpu.data         3635                       # number of overall (read+write) accesses
system.cache_small.overall_accesses::total         6848                       # number of overall (read+write) accesses
system.cache_small.demand_miss_rate::.cpu.inst     0.686275                       # miss rate for demand accesses
system.cache_small.demand_miss_rate::.cpu.data     0.529849                       # miss rate for demand accesses
system.cache_small.demand_miss_rate::total     0.603242                       # miss rate for demand accesses
system.cache_small.overall_miss_rate::.cpu.inst     0.686275                       # miss rate for overall accesses
system.cache_small.overall_miss_rate::.cpu.data     0.529849                       # miss rate for overall accesses
system.cache_small.overall_miss_rate::total     0.603242                       # miss rate for overall accesses
system.cache_small.demand_avg_miss_latency::.cpu.inst 60064.399093                       # average overall miss latency
system.cache_small.demand_avg_miss_latency::.cpu.data 58848.390447                       # average overall miss latency
system.cache_small.demand_avg_miss_latency::total 59497.458243                       # average overall miss latency
system.cache_small.overall_avg_miss_latency::.cpu.inst 60064.399093                       # average overall miss latency
system.cache_small.overall_avg_miss_latency::.cpu.data 58848.390447                       # average overall miss latency
system.cache_small.overall_avg_miss_latency::total 59497.458243                       # average overall miss latency
system.cache_small.blocked_cycles::no_mshrs            0                       # number of cycles access was blocked
system.cache_small.blocked_cycles::no_targets            0                       # number of cycles access was blocked
system.cache_small.blocked::no_mshrs                0                       # number of cycles access was blocked
system.cache_small.blocked::no_targets              0                       # number of cycles access was blocked
system.cache_small.avg_blocked_cycles::no_mshrs          nan                       # average number of cycles each access was blocked
system.cache_small.avg_blocked_cycles::no_targets          nan                       # average number of cycles each access was blocked
system.cache_small.writebacks::.writebacks          384                       # number of writebacks
system.cache_small.writebacks::total              384                       # number of writebacks
system.cache_small.demand_mshr_misses::.cpu.inst         2205                       # number of demand (read+write) MSHR misses
system.cache_small.demand_mshr_misses::.cpu.data         1926                       # number of demand (read+write) MSHR misses
system.cache_small.demand_mshr_misses::total         4131                       # number of demand (read+write) MSHR misses
system.cache_small.overall_mshr_misses::.cpu.inst         2205                       # number of overall MSHR misses
system.cache_small.overall_mshr_misses::.cpu.data         1926                       # number of overall MSHR misses
system.cache_small.overall_mshr_misses::total         4131                       # number of overall MSHR misses
system.cache_small.demand_mshr_miss_latency::.cpu.inst    128032000                       # number of demand (read+write) MSHR miss cycles
system.cache_small.demand_mshr_miss_latency::.cpu.data    109490000                       # number of demand (read+write) MSHR miss cycles
system.cache_small.demand_mshr_miss_latency::total    237522000                       # number of demand (read+write) MSHR miss cycles
system.cache_small.overall_mshr_miss_latency::.cpu.inst    128032000                       # number of overall MSHR miss cycles
system.cache_small.overall_mshr_miss_latency::.cpu.data    109490000                       # number of overall MSHR miss cycles
system.cache_small.overall_mshr_miss_latency::total    237522000                       # number of overall MSHR miss cycles
system.cache_small.demand_mshr_miss_rate::.cpu.inst     0.686275                       # mshr miss rate for demand accesses
system.cache_small.demand_mshr_miss_rate::.cpu.data     0.529849                       # mshr miss rate for demand accesses
system.cache_small.demand_mshr_miss_rate::total     0.603242                       # mshr miss rate for demand accesses
system.cache_small.overall_mshr_miss_rate::.cpu.inst     0.686275                       # mshr miss rate for overall accesses
system.cache_small.overall_mshr_miss_rate::.cpu.data     0.529849                       # mshr miss rate for overall accesses
system.cache_small.overall_mshr_miss_rate::total     0.603242                       # mshr miss rate for overall accesses
system.cache_small.demand_avg_mshr_miss_latency::.cpu.inst 58064.399093                       # average overall mshr miss latency
system.cache_small.demand_avg_mshr_miss_latency::.cpu.data 56848.390447                       # average overall mshr miss latency
system.cache_small.demand_avg_mshr_miss_latency::total 57497.458243                       # average overall mshr miss latency
system.cache_small.overall_avg_mshr_miss_latency::.cpu.inst 58064.399093                       # average overall mshr miss latency
system.cache_small.overall_avg_mshr_miss_latency::.cpu.data 56848.390447                       # average overall mshr miss latency
system.cache_small.overall_avg_mshr_miss_latency::total 57497.458243                       # average overall mshr miss latency
system.cache_small.replacements                  1646                       # number of replacements
system.cache_small.ReadReq_hits::.cpu.inst         1008                       # number of ReadReq hits
system.cache_small.ReadReq_hits::.cpu.data         1709                       # number of ReadReq hits
system.cache_small.ReadReq_hits::total           2717                       # number of ReadReq hits
system.cache_small.ReadReq_misses::.cpu.inst         2205                       # number of ReadReq misses
system.cache_small.ReadReq_misses::.cpu.data         1926                       # number of ReadReq misses
system.cache_small.ReadReq_misses::total         4131                       # number of ReadReq misses
system.cache_small.ReadReq_miss_latency::.cpu.inst    132442000                       # number of ReadReq miss cycles
system.cache_small.ReadReq_miss_latency::.cpu.data    113342000                       # number of ReadReq miss cycles
system.cache_small.ReadReq_miss_latency::total    245784000                       # number of ReadReq miss cycles
system.cache_small.ReadReq_accesses::.cpu.inst         3213                       # number of ReadReq accesses(hits+misses)
system.cache_small.ReadReq_accesses::.cpu.data         3635                       # number of ReadReq accesses(hits+misses)
system.cache_small.ReadReq_accesses::total         6848                       # number of ReadReq accesses(hits+misses)
system.cache_small.ReadReq_miss_rate::.cpu.inst     0.686275                       # miss rate for ReadReq accesses
system.cache_small.ReadReq_miss_rate::.cpu.data     0.529849                       # miss rate for ReadReq accesses
system.cache_small.ReadReq_miss_rate::total     0.603242                       # miss rate for ReadReq accesses
system.cache_small.ReadReq_avg_miss_latency::.cpu.inst 60064.399093                       # average ReadReq miss latency
system.cache_small.ReadReq_avg_miss_latency::.cpu.data 58848.390447                       # average ReadReq miss latency
system.cache_small.ReadReq_avg_miss_latency::total 59497.458243                       # average ReadReq miss latency
system.cache_small.ReadReq_mshr_misses::.cpu.inst         2205                       # number of ReadReq MSHR misses
system.cache_small.ReadReq_mshr_misses::.cpu.data         1926                       # number of ReadReq MSHR misses
system.cache_small.ReadReq_mshr_misses::total         4131                       # number of ReadReq MSHR misses
system.cache_small.ReadReq_mshr_miss_latency::.cpu.inst    128032000                       # number of ReadReq MSHR miss cycles
system.cache_small.ReadReq_mshr_miss_latency::.cpu.data    109490000                       # number of ReadReq MSHR miss cycles
system.cache_small.ReadReq_mshr_miss_latency::total    237522000                       # number of ReadReq MSHR miss cycles
system.cache_small.ReadReq_mshr_miss_rate::.cpu.inst     0.686275                       # mshr miss rate for ReadReq accesses
system.cache_small.ReadReq_mshr_miss_rate::.cpu.data     0.529849                       # mshr miss rate for ReadReq accesses
system.cache_small.ReadReq_mshr_miss_rate::total     0.603242                       # mshr miss rate for ReadReq accesses
system.cache_small.ReadReq_avg_mshr_miss_latency::.cpu.inst 58064.399093                       # average ReadReq mshr miss latency
system.cache_small.ReadReq_avg_mshr_miss_latency::.cpu.data 56848.390447                       # average ReadReq mshr miss latency
system.cache_small.ReadReq_avg_mshr_miss_latency::total 57497.458243                       # average ReadReq mshr miss latency
system.cache_small.WritebackDirty_hits::.writebacks         2225                       # number of WritebackDirty hits
system.cache_small.WritebackDirty_hits::total         2225                       # number of WritebackDirty hits
system.cache_small.WritebackDirty_accesses::.writebacks         2225                       # number of WritebackDirty accesses(hits+misses)
system.cache_small.WritebackDirty_accesses::total         2225                       # number of WritebackDirty accesses(hits+misses)
system.cache_small.power_state.pwrStateResidencyTicks::UNDEFINED   3750125000                       # Cumulative time (in ticks) in various power states
system.cache_small.tags.tagsinuse         2365.400192                       # Cycle average of tags in use
system.cache_small.tags.total_refs               2441                       # Total number of references to valid blocks.
system.cache_small.tags.sampled_refs             1646                       # Sample count of references to valid blocks.
system.cache_small.tags.avg_refs             1.482989                       # Average number of references to valid blocks.
system.cache_small.tags.warmup_cycle            76000                       # Cycle when the warmup percentage was hit.
system.cache_small.tags.occ_blocks::.writebacks   152.301122                       # Average occupied blocks per requestor
system.cache_small.tags.occ_blocks::.cpu.inst  1116.453755                       # Average occupied blocks per requestor
system.cache_small.tags.occ_blocks::.cpu.data  1096.645315                       # Average occupied blocks per requestor
system.cache_small.tags.occ_percent::.writebacks     0.037183                       # Average percentage of cache occupancy
system.cache_small.tags.occ_percent::.cpu.inst     0.272572                       # Average percentage of cache occupancy
system.cache_small.tags.occ_percent::.cpu.data     0.267736                       # Average percentage of cache occupancy
system.cache_small.tags.occ_percent::total     0.577490                       # Average percentage of cache occupancy
system.cache_small.tags.occ_task_id_blocks::1024         2718                       # Occupied blocks per task id
system.cache_small.tags.age_task_id_blocks_1024::3         2718                       # Occupied blocks per task id
system.cache_small.tags.occ_task_id_percent::1024     0.663574                       # Percentage of cache occupancy per task id
system.cache_small.tags.tag_accesses            13437                       # Number of tag accesses
system.cache_small.tags.data_accesses           13437                       # Number of data accesses
system.cache_small.tags.power_state.pwrStateResidencyTicks::UNDEFINED   3750125000                       # Cumulative time (in ticks) in various power states
system.icache.demand_hits::.cpu.inst          1315265                       # number of demand (read+write) hits
system.icache.demand_hits::total              1315265                       # number of demand (read+write) hits
system.icache.overall_hits::.cpu.inst         1315265                       # number of overall hits
system.icache.overall_hits::total             1315265                       # number of overall hits
system.icache.demand_misses::.cpu.inst           3701                       # number of demand (read+write) misses
system.icache.demand_misses::total               3701                       # number of demand (read+write) misses
system.icache.overall_misses::.cpu.inst          3701                       # number of overall misses
system.icache.overall_misses::total              3701                       # number of overall misses
system.icache.demand_miss_latency::.cpu.inst    196513000                       # number of demand (read+write) miss cycles
system.icache.demand_miss_latency::total    196513000                       # number of demand (read+write) miss cycles
system.icache.overall_miss_latency::.cpu.inst    196513000                       # number of overall miss cycles
system.icache.overall_miss_latency::total    196513000                       # number of overall miss cycles
system.icache.demand_accesses::.cpu.inst      1318966                       # number of demand (read+write) accesses
system.icache.demand_accesses::total          1318966                       # number of demand (read+write) accesses
system.icache.overall_accesses::.cpu.inst      1318966                       # number of overall (read+write) accesses
system.icache.overall_accesses::total         1318966                       # number of overall (read+write) accesses
system.icache.demand_miss_rate::.cpu.inst     0.002806                       # miss rate for demand accesses
system.icache.demand_miss_rate::total        0.002806                       # miss rate for demand accesses
system.icache.overall_miss_rate::.cpu.inst     0.002806                       # miss rate for overall accesses
system.icache.overall_miss_rate::total       0.002806                       # miss rate for overall accesses
system.icache.demand_avg_miss_latency::.cpu.inst 53097.271008                       # average overall miss latency
system.icache.demand_avg_miss_latency::total 53097.271008                       # average overall miss latency
system.icache.overall_avg_miss_latency::.cpu.inst 53097.271008                       # average overall miss latency
system.icache.overall_avg_miss_latency::total 53097.271008                       # average overall miss latency
system.icache.blocked_cycles::no_mshrs              0                       # number of cycles access was blocked
system.icache.blocked_cycles::no_targets            0                       # number of cycles access was blocked
system.icache.blocked::no_mshrs                     0                       # number of cycles access was blocked
system.icache.blocked::no_targets                   0                       # number of cycles access was blocked
system.icache.avg_blocked_cycles::no_mshrs          nan                       # average number of cycles each access was blocked
system.icache.avg_blocked_cycles::no_targets          nan                       # average number of cycles each access was blocked
system.icache.demand_mshr_misses::.cpu.inst         3701                       # number of demand (read+write) MSHR misses
system.icache.demand_mshr_misses::total          3701                       # number of demand (read+write) MSHR misses
system.icache.overall_mshr_misses::.cpu.inst         3701                       # number of overall MSHR misses
system.icache.overall_mshr_misses::total         3701                       # number of overall MSHR misses
system.icache.demand_mshr_miss_latency::.cpu.inst    189111000                       # number of demand (read+write) MSHR miss cycles
system.icache.demand_mshr_miss_latency::total    189111000                       # number of demand (read+write) MSHR miss cycles
system.icache.overall_mshr_miss_latency::.cpu.inst    189111000                       # number of overall MSHR miss cycles
system.icache.overall_mshr_miss_latency::total    189111000                       # number of overall MSHR miss cycles
system.icache.demand_mshr_miss_rate::.cpu.inst     0.002806                       # mshr miss rate for demand accesses
system.icache.demand_mshr_miss_rate::total     0.002806                       # mshr miss rate for demand accesses
system.icache.overall_mshr_miss_rate::.cpu.inst     0.002806                       # mshr miss rate for overall accesses
system.icache.overall_mshr_miss_rate::total     0.002806                       # mshr miss rate for overall accesses
system.icache.demand_avg_mshr_miss_latency::.cpu.inst 51097.271008                       # average overall mshr miss latency
system.icache.demand_avg_mshr_miss_latency::total 51097.271008                       # average overall mshr miss latency
system.icache.overall_avg_mshr_miss_latency::.cpu.inst 51097.271008                       # average overall mshr miss latency
system.icache.overall_avg_mshr_miss_latency::total 51097.271008                       # average overall mshr miss latency
system.icache.replacements                       3445                       # number of replacements
system.icache.ReadReq_hits::.cpu.inst         1315265                       # number of ReadReq hits
system.icache.ReadReq_hits::total             1315265                       # number of ReadReq hits
system.icache.ReadReq_misses::.cpu.inst          3701                       # number of ReadReq misses
system.icache.ReadReq_misses::total              3701                       # number of ReadReq misses
system.icache.ReadReq_miss_latency::.cpu.inst    196513000                       # number of ReadReq miss cycles
system.icache.ReadReq_miss_latency::total    196513000                       # number of ReadReq miss cycles
system.icache.ReadReq_accesses::.cpu.inst      1318966                       # number of ReadReq accesses(hits+misses)
system.icache.ReadReq_accesses::total         1318966                       # number of ReadReq accesses(hits+misses)
system.icache.ReadReq_miss_rate::.cpu.inst     0.002806                       # miss rate for ReadReq accesses
system.icache.ReadReq_miss_rate::total       0.002806                       # miss rate for ReadReq accesses
system.icache.ReadReq_avg_miss_latency::.cpu.inst 53097.271008                       # average ReadReq miss latency
system.icache.ReadReq_avg_miss_latency::total 53097.271008                       # average ReadReq miss latency
system.icache.ReadReq_mshr_misses::.cpu.inst         3701                       # number of ReadReq MSHR misses
system.icache.ReadReq_mshr_misses::total         3701                       # number of ReadReq MSHR misses
system.icache.ReadReq_mshr_miss_latency::.cpu.inst    189111000                       # number of ReadReq MSHR miss cycles
system.icache.ReadReq_mshr_miss_latency::total    189111000                       # number of ReadReq MSHR miss cycles
system.icache.ReadReq_mshr_miss_rate::.cpu.inst     0.002806                       # mshr miss rate for ReadReq accesses
system.icache.ReadReq_mshr_miss_rate::total     0.002806                       # mshr miss rate for ReadReq accesses
system.icache.ReadReq_avg_mshr_miss_latency::.cpu.inst 51097.271008                       # average ReadReq mshr miss latency
system.icache.ReadReq_avg_mshr_miss_latency::total 51097.271008                       # average ReadReq mshr miss latency
system.icache.power_state.pwrStateResidencyTicks::UNDEFINED   3750125000                       # Cumulative time (in ticks) in various power states
system.icache.tags.tagsinuse               251.360671                       # Cycle average of tags in use
system.icache.tags.total_refs                  302775                       # Total number of references to valid blocks.
system.icache.tags.sampled_refs                  3445                       # Sample count of references to valid blocks.
system.icache.tags.avg_refs                 87.888244                       # Average number of references to valid blocks.
system.icache.tags.warmup_cycle                 82000                       # Cycle when the warmup percentage was hit.
system.icache.tags.occ_blocks::.cpu.inst   251.360671                       # Average occupied blocks per requestor
system.icache.tags.occ_percent::.cpu.inst     0.981878                       # Average percentage of cache occupancy
system.icache.tags.occ_percent::total        0.981878                       # Average percentage of cache occupancy
system.icache.tags.occ_task_id_blocks::1024          256                       # Occupied blocks per task id
system.icache.tags.age_task_id_blocks_1024::3          256                       # Occupied blocks per task id
system.icache.tags.occ_task_id_percent::1024            1                       # Percentage of cache occupancy per task id
system.icache.tags.tag_accesses               1322667                       # Number of tag accesses
system.icache.tags.data_accesses              1322667                       # Number of data accesses
system.icache.tags.power_state.pwrStateResidencyTicks::UNDEFINED   3750125000                       # Cumulative time (in ticks) in various power states
system.membus.trans_dist::ReadReq                4131                       # Transaction distribution
system.membus.trans_dist::ReadResp               4131                       # Transaction distribution
system.membus.trans_dist::WritebackDirty          384                       # Transaction distribution
system.membus.pkt_count_system.cache_small.mem_side::system.mem_ctrl.port         8646                       # Packet count per connected master and slave (bytes)
system.membus.pkt_count_system.cache_small.mem_side::total         8646                       # Packet count per connected master and slave (bytes)
system.membus.pkt_count::total                   8646                       # Packet count per connected master and slave (bytes)
system.membus.pkt_size_system.cache_small.mem_side::system.mem_ctrl.port       288960                       # Cumulative packet size per connected master and slave (bytes)
system.membus.pkt_size_system.cache_small.mem_side::total       288960                       # Cumulative packet size per connected master and slave (bytes)
system.membus.pkt_size::total                  288960                       # Cumulative packet size per connected master and slave (bytes)
system.membus.reqLayer2.occupancy             6051000                       # Layer occupancy (ticks)
system.membus.reqLayer2.utilization               0.2                       # Layer utilization (%)
system.membus.respLayer1.occupancy           21949500                       # Layer occupancy (ticks)
system.membus.respLayer1.utilization              0.6                       # Layer utilization (%)
system.membus.power_state.pwrStateResidencyTicks::UNDEFINED   3750125000                       # Cumulative time (in ticks) in various power states
system.mem_ctrl.bytes_read::.cpu.inst          141120                       # Number of bytes read from this memory
system.mem_ctrl.bytes_read::.cpu.data          123264                       # Number of bytes read from this memory
system.mem_ctrl.bytes_read::total              264384                       # Number of bytes read from this memory
system.mem_ctrl.bytes_inst_read::.cpu.inst       141120                       # Number of instructions bytes read from this memory
system.mem_ctrl.bytes_inst_read::total         141120                       # Number of instructions bytes read from this memory
system.mem_ctrl.bytes_written::.writebacks        24576                       # Number of bytes written to this memory
system.mem_ctrl.bytes_written::total            24576                       # Number of bytes written to this memory
system.mem_ctrl.num_reads::.cpu.inst             2205                       # Number of read requests responded to by this memory
system.mem_ctrl.num_reads::.cpu.data             1926                       # Number of read requests responded to by this memory
system.mem_ctrl.num_reads::total                 4131                       # Number of read requests responded to by this memory
system.mem_ctrl.num_writes::.writebacks           384                       # Number of write requests responded to by this memory
system.mem_ctrl.num_writes::total                 384                       # Number of write requests responded to by this memory
system.mem_ctrl.bw_read::.cpu.inst           37630746                       # Total read bandwidth from this memory (bytes/s)
system.mem_ctrl.bw_read::.cpu.data           32869304                       # Total read bandwidth from this memory (bytes/s)
system.mem_ctrl.bw_read::total               70500050                       # Total read bandwidth from this memory (bytes/s)
system.mem_ctrl.bw_inst_read::.cpu.inst      37630746                       # Instruction read bandwidth from this memory (bytes/s)
system.mem_ctrl.bw_inst_read::total          37630746                       # Instruction read bandwidth from this memory (bytes/s)
system.mem_ctrl.bw_write::.writebacks         6553382                       # Write bandwidth from this memory (bytes/s)
system.mem_ctrl.bw_write::total               6553382                       # Write bandwidth from this memory (bytes/s)
system.mem_ctrl.bw_total::.writebacks         6553382                       # Total bandwidth to/from this memory (bytes/s)
system.mem_ctrl.bw_total::.cpu.inst          37630746                       # Total bandwidth to/from this memory (bytes/s)
system.mem_ctrl.bw_total::.cpu.data          32869304                       # Total bandwidth to/from this memory (bytes/s)
system.mem_ctrl.bw_total::total              77053432                       # Total bandwidth to/from this memory (bytes/s)
system.mem_ctrl.avgPriority_.writebacks::samples       383.00                       # Average QoS priority value for accepted requests
system.mem_ctrl.avgPriority_.cpu.inst::samples      2205.00                       # Average QoS priority value for accepted requests
system.mem_ctrl.avgPriority_.cpu.data::samples      1924.00                       # Average QoS priority value for accepted requests
system.mem_ctrl.priorityMinLatency       0.000000018750                       # per QoS priority minimum request to response latency (s)
system.mem_ctrl.priorityMaxLatency       0.001308400500                       # per QoS priority maximum request to response latency (s)
system.mem_ctrl.numReadWriteTurnArounds            21                       # Number of turnarounds from READ to WRITE
system.mem_ctrl.numWriteReadTurnArounds            21                       # Number of turnarounds from WRITE to READ
system.mem_ctrl.numStayReadState                 9587                       # Number of times bus staying in READ state
system.mem_ctrl.numStayWriteState                 336                       # Number of times bus staying in WRITE state
system.mem_ctrl.readReqs                         4131                       # Number of read requests accepted
system.mem_ctrl.writeReqs                         384                       # Number of write requests accepted
system.mem_ctrl.readBursts                       4131                       # Number of DRAM read bursts, including those serviced by the write queue
system.mem_ctrl.writeBursts                       384                       # Number of DRAM write bursts, including those merged in the write queue
system.mem_ctrl.servicedByWrQ                       2                       # Number of DRAM read bursts serviced by the write queue
system.mem_ctrl.mergedWrBursts                      1                       # Number of DRAM write bursts merged with an existing one
system.mem_ctrl.neitherReadNorWriteReqs             0                       # Number of requests that are neither read nor write
system.mem_ctrl.perBankRdBursts::0                236                       # Per bank write bursts
system.mem_ctrl.perBankRdBursts::1                218                       # Per bank write bursts
system.mem_ctrl.perBankRdBursts::2                349                       # Per bank write bursts
system.mem_ctrl.perBankRdBursts::3                253                       # Per bank write bursts
system.mem_ctrl.perBankRdBursts::4                214                       # Per bank write bursts
system.mem_ctrl.perBankRdBursts::5                236                       # Per bank write bursts
system.mem_ctrl.perBankRdBursts::6                307                       # Per bank write bursts
system.mem_ctrl.perBankRdBursts::7                231                       # Per bank write bursts
system.mem_ctrl.perBankRdBursts::8                265                       # Per bank write bursts
system.mem_ctrl.perBankRdBursts::9                224                       # Per bank write bursts
system.mem_ctrl.perBankRdBursts::10               201                       # Per bank write bursts
system.mem_ctrl.perBankRdBursts::11               305                       # Per bank write bursts
system.mem_ctrl.perBankRdBursts::12               365                       # Per bank write bursts
system.mem_ctrl.perBankRdBursts::13               295                       # Per bank write bursts
system.mem_ctrl.perBankRdBursts::14               259                       # Per bank write bursts
system.mem_ctrl.perBankRdBursts::15               171                       # Per bank write bursts
system.mem_ctrl.perBankWrBursts::0                 15                       # Per bank write bursts
system.mem_ctrl.perBankWrBursts::1                 12                       # Per bank write bursts
system.mem_ctrl.perBankWrBursts::2                108                       # Per bank write bursts
system.mem_ctrl.perBankWrBursts::3                 24                       # Per bank write bursts
system.mem_ctrl.perBankWrBursts::4                 42                       # Per bank write bursts
system.mem_ctrl.perBankWrBursts::5                 36                       # Per bank write bursts
system.mem_ctrl.perBankWrBursts::6                 16                       # Per bank write bursts
system.mem_ctrl.perBankWrBursts::7                  1                       # Per bank write bursts
system.mem_ctrl.perBankWrBursts::8                  0                       # Per bank write bursts
system.mem_ctrl.perBankWrBursts::9                  0                       # Per bank write bursts
system.mem_ctrl.perBankWrBursts::10                 4                       # Per bank write bursts
system.mem_ctrl.perBankWrBursts::11                20                       # Per bank write bursts
system.mem_ctrl.perBankWrBursts::12                27                       # Per bank write bursts
system.mem_ctrl.perBankWrBursts::13                18                       # Per bank write bursts
system.mem_ctrl.perBankWrBursts::14                21                       # Per bank write bursts
system.mem_ctrl.perBankWrBursts::15                10                       # Per bank write bursts
system.mem_ctrl.avgRdQLen                        1.00                       # Average read queue length when enqueuing
system.mem_ctrl.avgWrQLen                       26.13                       # Average write queue length when enqueuing
system.mem_ctrl.totQLat                      30767750                       # Total ticks spent queuing
system.mem_ctrl.totBusLat                    20645000                       # Total ticks spent in databus transfers
system.mem_ctrl.totMemAccLat                108186500                       # Total ticks spent from burst creation until serviced by the DRAM
system.mem_ctrl.avgQLat                       7451.62                       # Average queueing delay per DRAM burst
system.mem_ctrl.avgBusLat                     5000.00                       # Average bus latency per DRAM burst
system.mem_ctrl.avgMemAccLat                 26201.62                       # Average memory access latency per DRAM burst
system.mem_ctrl.numRdRetry                          0                       # Number of times read queue was full causing retry
system.mem_ctrl.numWrRetry                          0                       # Number of times write queue was full causing retry
system.mem_ctrl.readRowHits                      3226                       # Number of row buffer hits during reads
system.mem_ctrl.writeRowHits                      303                       # Number of row buffer hits during writes
system.mem_ctrl.readRowHitRate                  78.13                       # Row buffer hit rate for reads
system.mem_ctrl.writeRowHitRate                 79.11                       # Row buffer hit rate for writes
system.mem_ctrl.readPktSize::0                      0                       # Read request sizes (log2)
system.mem_ctrl.readPktSize::1                      0                       # Read request sizes (log2)
system.mem_ctrl.readPktSize::2                      0                       # Read request sizes (log2)
system.mem_ctrl.readPktSize::3                      0                       # Read request sizes (log2)
system.mem_ctrl.readPktSize::4                      0                       # Read request sizes (log2)
system.mem_ctrl.readPktSize::5                      0                       # Read request sizes (log2)
system.mem_ctrl.readPktSize::6                   4131                       # Read request sizes (log2)
system.mem_ctrl.writePktSize::0                     0                       # Write request sizes (log2)
system.mem_ctrl.writePktSize::1                     0                       # Write request sizes (log2)
system.mem_ctrl.writePktSize::2                     0                       # Write request sizes (log2)
system.mem_ctrl.writePktSize::3                     0                       # Write request sizes (log2)
system.mem_ctrl.writePktSize::4                     0                       # Write request sizes (log2)
system.mem_ctrl.writePktSize::5                     0                       # Write request sizes (log2)
system.mem_ctrl.writePktSize::6                   384                       # Write request sizes (log2)
system.mem_ctrl.rdQLenPdf::0                     4129                       # What read queue length does an incoming req see
system.mem_ctrl.rdQLenPdf::1                        0                       # What read queue length does an incoming req see
system.mem_ctrl.rdQLenPdf::2                        0                       # What read queue length does an incoming req see
system.mem_ctrl.rdQLenPdf::3                        0                       # What read queue length does an incoming req see
system.mem_ctrl.rdQLenPdf::4                        0                       # What read queue length does an incoming req see
system.mem_ctrl.rdQLenPdf::5                        0                       # What read queue length does an incoming req see
system.mem_ctrl.rdQLenPdf::6                        0                       # What read queue length does an incoming req see
system.mem_ctrl.rdQLenPdf::7                        0                       # What read queue length does an incoming req see
system.mem_ctrl.rdQLenPdf::8                        0                       # What read queue length does an incoming req see
system.mem_ctrl.rdQLenPdf::9                        0                       # What read queue length does an incoming req see
system.mem_ctrl.rdQLenPdf::10                       0                       # What read queue length does an incoming req see
system.mem_ctrl.rdQLenPdf::11                       0                       # What read queue length does an incoming req see
system.mem_ctrl.rdQLenPdf::12                       0                       # What read queue length does an incoming req see
system.mem_ctrl.rdQLenPdf::13                       0                       # What read queue length does an incoming req see
system.mem_ctrl.rdQLenPdf::14                       0                       # What read queue length does an incoming req see
system.mem_ctrl.rdQLenPdf::15                       0                       # What read queue length does an incoming req see
system.mem_ctrl.rdQLenPdf::16                       0                       # What read queue length does an incoming req see
system.mem_ctrl.rdQLenPdf::17                       0                       # What read queue length does an incoming req see
system.mem_ctrl.rdQLenPdf::18                       0                       # What read queue length does an incoming req see
system.mem_ctrl.rdQLenPdf::19                       0                       # What read queue length does an incoming req see
system.mem_ctrl.rdQLenPdf::20                       0                       # What read queue length does an incoming req see
system.mem_ctrl.rdQLenPdf::21                       0                       # What read queue length does an incoming req see
system.mem_ctrl.rdQLenPdf::22                       0                       # What read queue length does an incoming req see
system.mem_ctrl.rdQLenPdf::23                       0                       # What read queue length does an incoming req see
system.mem_ctrl.rdQLenPdf::24                       0                       # What read queue length does an incoming req see
system.mem_ctrl.rdQLenPdf::25                       0                       # What read queue length does an incoming req see
system.mem_ctrl.rdQLenPdf::26                       0                       # What read queue length does an incoming req see
system.mem_ctrl.rdQLenPdf::27                       0                       # What read queue length does an incoming req see
system.mem_ctrl.rdQLenPdf::28                       0                       # What read queue length does an incoming req see
system.mem_ctrl.rdQLenPdf::29                       0                       # What read queue length does an incoming req see
system.mem_ctrl.rdQLenPdf::30                       0                       # What read queue length does an incoming req see
system.mem_ctrl.rdQLenPdf::31                       0                       # What read queue length does an incoming req see
system.mem_ctrl.wrQLenPdf::0                        1                       # What write queue length does an incoming req see
system.mem_ctrl.wrQLenPdf::1                        1                       # What write queue length does an incoming req see
system.mem_ctrl.wrQLenPdf::2                        1                       # What write queue length does an incoming req see
system.mem_ctrl.wrQLenPdf::3                        1                       # What write queue length does an incoming req see
system.mem_ctrl.wrQLenPdf::4                        1                       # What write queue length does an incoming req see
system.mem_ctrl.wrQLenPdf::5                        1                       # What write queue length does an incoming req see
system.mem_ctrl.wrQLenPdf::6                        1                       # What write queue length does an incoming req see
system.mem_ctrl.wrQLenPdf::7                        1                       # What write queue length does an incoming req see
system.mem_ctrl.wrQLenPdf::8                        1                       # What write queue length does an incoming req see
system.mem_ctrl.wrQLenPdf::9                        1                       # What write queue length does an incoming req see
system.mem_ctrl.wrQLenPdf::10                       1                       # What write queue length does an incoming req see
system.mem_ctrl.wrQLenPdf::11                       1                       # What write queue length does an incoming req see
system.mem_ctrl.wrQLenPdf::12                       1                       # What write queue length does an incoming req see
system.mem_ctrl.wrQLenPdf::13                       1                       # What write queue length does an incoming req see
system.mem_ctrl.wrQLenPdf::14                       1                       # What write queue length does an incoming req see
system.mem_ctrl.wrQLenPdf::15                       9                       # What write queue length does an incoming req see
system.mem_ctrl.wrQLenPdf::16                      11                       # What write queue length does an incoming req see
system.mem_ctrl.wrQLenPdf::17                      22                       # What write queue length does an incoming req see
system.mem_ctrl.wrQLenPdf::18                      22                       # What write queue length does an incoming req see
system.mem_ctrl.wrQLenPdf::19                      22                       # What write queue length does an incoming req see
system.mem_ctrl.wrQLenPdf::20                      22                       # What write queue length does an incoming req see
system.mem_ctrl.wrQLenPdf::21                      22                       # What write queue length does an incoming req see
system.mem_ctrl.wrQLenPdf::22                      22                       # What write queue length does an incoming req see
system.mem_ctrl.wrQLenPdf::23                      22                       # What write queue length does an incoming req see
system.mem_ctrl.wrQLenPdf::24                      22                       # What write queue length does an incoming req see
system.mem_ctrl.wrQLenPdf::25                      22                       # What write queue length does an incoming req see
system.mem_ctrl.wrQLenPdf::26                      22                       # What write queue length does an incoming req see
system.mem_ctrl.wrQLenPdf::27                      22                       # What write queue length does an incoming req see
system.mem_ctrl.wrQLenPdf::28                      22                       # What write queue length does an incoming req see
system.mem_ctrl.wrQLenPdf::29                      21                       # What write queue length does an incoming req see
system.mem_ctrl.wrQLenPdf::30                      21                       # What write queue length does an incoming req see
system.mem_ctrl.wrQLenPdf::31                      21                       # What write queue length does an incoming req see
system.mem_ctrl.wrQLenPdf::32                      21                       # What write queue length does an incoming req see
system.mem_ctrl.wrQLenPdf::33                       0                       # What write queue length does an incoming req see
system.mem_ctrl.wrQLenPdf::34                       0                       # What write queue length does an incoming req see
system.mem_ctrl.wrQLenPdf::35                       0                       # What write queue length does an incoming req see
system.mem_ctrl.wrQLenPdf::36                       0                       # What write queue length does an incoming req see
system.mem_ctrl.wrQLenPdf::37                       0                       # What write queue length does an incoming req see
system.mem_ctrl.wrQLenPdf::38                       0                       # What write queue length does an incoming req see
system.mem_ctrl.wrQLenPdf::39                       0                       # What write queue length does an incoming req see
system.mem_ctrl.wrQLenPdf::40                       0                       # What write queue length does an incoming req see
system.mem_ctrl.wrQLenPdf::41                       0                       # What write queue length does an incoming req see
system.mem_ctrl.wrQLenPdf::42                       0                       # What write queue length does an incoming req see
system.mem_ctrl.wrQLenPdf::43                       0                       # What write queue length does an incoming req see
system.mem_ctrl.wrQLenPdf::44                       0                       # What write queue length does an incoming req see
system.mem_ctrl.wrQLenPdf::45                       0                       # What write queue length does an incoming req see
system.mem_ctrl.wrQLenPdf::46                       0                       # What write queue length does an incoming req see
system.mem_ctrl.wrQLenPdf::47                       0                       # What write queue length does an incoming req see
system.mem_ctrl.wrQLenPdf::48                       0                       # What write queue length does an incoming req see
system.mem_ctrl.wrQLenPdf::49                       0                       # What write queue length does an incoming req see
system.mem_ctrl.wrQLenPdf::50                       0                       # What write queue length does an incoming req see
system.mem_ctrl.wrQLenPdf::51                       0                       # What write queue length does an incoming req see
system.mem_ctrl.wrQLenPdf::52                       0                       # What write queue length does an incoming req see
system.mem_ctrl.wrQLenPdf::53                       0                       # What write queue length does an incoming req see
system.mem_ctrl.wrQLenPdf::54                       0                       # What write queue length does an incoming req see
system.mem_ctrl.wrQLenPdf::55                       0                       # What write queue length does an incoming req see
system.mem_ctrl.wrQLenPdf::56                       0                       # What write queue length does an incoming req see
system.mem_ctrl.wrQLenPdf::57                       0                       # What write queue length does an incoming req see
system.mem_ctrl.wrQLenPdf::58                       0                       # What write queue length does an incoming req see
system.mem_ctrl.wrQLenPdf::59                       0                       # What write queue length does an incoming req see
system.mem_ctrl.wrQLenPdf::60                       0                       # What write queue length does an incoming req see
system.mem_ctrl.wrQLenPdf::61                       0                       # What write queue length does an incoming req see
system.mem_ctrl.wrQLenPdf::62                       0                       # What write queue length does an incoming req see
system.mem_ctrl.wrQLenPdf::63                       0                       # What write queue length does an incoming req see
system.mem_ctrl.bytesPerActivate::samples          954                       # Bytes accessed per row activation
system.mem_ctrl.bytesPerActivate::mean     300.746331                       # Bytes accessed per row activation
system.mem_ctrl.bytesPerActivate::gmean    195.479086                       # Bytes accessed per row activation
system.mem_ctrl.bytesPerActivate::stdev    292.636825                       # Bytes accessed per row activation
system.mem_ctrl.bytesPerActivate::0-127           260     27.25%     27.25% # Bytes accessed per row activation
system.mem_ctrl.bytesPerActivate::128-255          291     30.50%     57.76% # Bytes accessed per row activation
system.mem_ctrl.bytesPerActivate::256-383          137     14.36%     72.12% # Bytes accessed per row activation
system.mem_ctrl.bytesPerActivate::384-511           67      7.02%     79.14% # Bytes accessed per row activation
system.mem_ctrl.bytesPerActivate::512-639           49      5.14%     84.28% # Bytes accessed per row activation
system.mem_ctrl.bytesPerActivate::640-767           37      3.88%     88.16% # Bytes accessed per row activation
system.mem_ctrl.bytesPerActivate::768-895           20      2.10%     90.25% # Bytes accessed per row activation
system.mem_ctrl.bytesPerActivate::896-1023           17      1.78%     92.03% # Bytes accessed per row activation
system.mem_ctrl.bytesPerActivate::1024-1151           76      7.97%    100.00% # Bytes accessed per row activation
system.mem_ctrl.bytesPerActivate::total           954                       # Bytes accessed per row activation
system.mem_ctrl.rdPerTurnAround::samples           21                       # Reads before turning the bus around for writes
system.mem_ctrl.rdPerTurnAround::mean      174.047619                       # Reads before turning the bus around for writes
system.mem_ctrl.rdPerTurnAround::gmean      63.109191                       # Reads before turning the bus around for writes
system.mem_ctrl.rdPerTurnAround::stdev     488.037445                       # Reads before turning the bus around for writes
system.mem_ctrl.rdPerTurnAround::0-127             18     85.71%     85.71% # Reads before turning the bus around for writes
system.mem_ctrl.rdPerTurnAround::128-255            1      4.76%     90.48% # Reads before turning the bus around for writes
system.mem_ctrl.rdPerTurnAround::256-383            1      4.76%     95.24% # Reads before turning the bus around for writes
system.mem_ctrl.rdPerTurnAround::2176-2303            1      4.76%    100.00% # Reads before turning the bus around for writes
system.mem_ctrl.rdPerTurnAround::total             21                       # Reads before turning the bus around for writes
system.mem_ctrl.wrPerTurnAround::samples           21                       # Writes before turning the bus around for reads
system.mem_ctrl.wrPerTurnAround::mean       16.857143                       # Writes before turning the bus around for reads
system.mem_ctrl.wrPerTurnAround::gmean      16.831165                       # Writes before turning the bus around for reads
system.mem_ctrl.wrPerTurnAround::stdev       0.963624                       # Writes before turning the bus around for reads
system.mem_ctrl.wrPerTurnAround::16                11     52.38%     52.38% # Writes before turning the bus around for reads
system.mem_ctrl.wrPerTurnAround::17                 2      9.52%     61.90% # Writes before turning the bus around for reads
system.mem_ctrl.wrPerTurnAround::18                 8     38.10%    100.00% # Writes before turning the bus around for reads
system.mem_ctrl.wrPerTurnAround::total             21                       # Writes before turning the bus around for reads
system.mem_ctrl.bytesReadDRAM                  264256                       # Total number of bytes read from DRAM
system.mem_ctrl.bytesReadWrQ                      128                       # Total number of bytes read from write queue
system.mem_ctrl.bytesWritten                    22656                       # Total number of bytes written to DRAM
system.mem_ctrl.bytesReadSys                   264384                       # Total read bytes from the system interface side
system.mem_ctrl.bytesWrittenSys                 24576                       # Total written bytes from the system interface side
system.mem_ctrl.avgRdBW                         70.47                       # Average DRAM read bandwidth in MiByte/s
system.mem_ctrl.avgWrBW                          6.04                       # Average achieved write bandwidth in MiByte/s
system.mem_ctrl.avgRdBWSys                      70.50                       # Average system read bandwidth in MiByte/s
system.mem_ctrl.avgWrBWSys                       6.55                       # Average system write bandwidth in MiByte/s
system.mem_ctrl.peakBW                       12800.00                       # Theoretical peak bandwidth in MiByte/s
system.mem_ctrl.busUtil                          0.60                       # Data bus utilization in percentage
system.mem_ctrl.busUtilRead                      0.55                       # Data bus utilization in percentage for reads
system.mem_ctrl.busUtilWrite                     0.05                       # Data bus utilization in percentage for writes
system.mem_ctrl.totGap                     1481159000                       # Total gap between requests
system.mem_ctrl.avgGap                      328052.93                       # Average gap between requests
system.mem_ctrl.masterReadBytes::.cpu.inst       141120                       # Per-master bytes read from memory
system.mem_ctrl.masterReadBytes::.cpu.data       123136                       # Per-master bytes read from memory
system.mem_ctrl.masterWriteBytes::.writebacks        22656                       # Per-master bytes write to memory
system.mem_ctrl.masterReadRate::.cpu.inst 37630745.641811937094                       # Per-master bytes read from memory rate (Bytes/sec)
system.mem_ctrl.masterReadRate::.cpu.data 32835172.160927969962                       # Per-master bytes read from memory rate (Bytes/sec)
system.mem_ctrl.masterWriteRate::.writebacks 6041398.620045998134                       # Per-master bytes write to memory rate (Bytes/sec)
system.mem_ctrl.masterReadAccesses::.cpu.inst         2205                       # Per-master read serviced memory accesses
system.mem_ctrl.masterReadAccesses::.cpu.data         1926                       # Per-master read serviced memory accesses
system.mem_ctrl.masterWriteAccesses::.writebacks          384                       # Per-master write serviced memory accesses
system.mem_ctrl.masterReadTotalLat::.cpu.inst     58969250                       # Per-master read total memory access latency
system.mem_ctrl.masterReadTotalLat::.cpu.data     49217250                       # Per-master read total memory access latency
system.mem_ctrl.masterWriteTotalLat::.writebacks  22745523500                       # Per-master write total memory access latency
system.mem_ctrl.masterReadAvgLat::.cpu.inst     26743.42                       # Per-master read average memory access latency
system.mem_ctrl.masterReadAvgLat::.cpu.data     25554.13                       # Per-master read average memory access latency
system.mem_ctrl.masterWriteAvgLat::.writebacks  59233134.11                       # Per-master write average memory access latency
system.mem_ctrl.pageHitRate                     78.21                       # Row buffer hit rate, read and write combined
system.mem_ctrl.rank1.actEnergy               3498600                       # Energy for activate commands per rank (pJ)
system.mem_ctrl.rank1.preEnergy               1859550                       # Energy for precharge commands per rank (pJ)
system.mem_ctrl.rank1.readEnergy             14886900                       # Energy for read commands per rank (pJ)
system.mem_ctrl.rank1.writeEnergy              522000                       # Energy for write commands per rank (pJ)
system.mem_ctrl.rank1.refreshEnergy      295641840.000000                       # Energy for refresh commands per rank (pJ)
system.mem_ctrl.rank1.actBackEnergy         410481510                       # Energy for active background per rank (pJ)
system.mem_ctrl.rank1.preBackEnergy        1094379360                       # Energy for precharge background per rank (pJ)
system.mem_ctrl.rank1.actPowerDownEnergy            0                       # Energy for active power-down per rank (pJ)
system.mem_ctrl.rank1.prePowerDownEnergy            0                       # Energy for precharge power-down per rank (pJ)
system.mem_ctrl.rank1.selfRefreshEnergy             0                       # Energy for self refresh per rank (pJ)
system.mem_ctrl.rank1.totalEnergy          1821269760                       # Total energy per rank (pJ)
system.mem_ctrl.rank1.averagePower         485.655747                       # Core power per rank (mW)
system.mem_ctrl.rank1.totalIdleTime                 0                       # Total Idle time Per DRAM Rank
system.mem_ctrl.rank1.memoryStateTime::IDLE   2840727750                       # Time in different power states
system.mem_ctrl.rank1.memoryStateTime::REF    125060000                       # Time in different power states
system.mem_ctrl.rank1.memoryStateTime::SREF            0                       # Time in different power states
system.mem_ctrl.rank1.memoryStateTime::PRE_PDN            0                       # Time in different power states
system.mem_ctrl.rank1.memoryStateTime::ACT    784337250                       # Time in different power states
system.mem_ctrl.rank1.memoryStateTime::ACT_PDN            0                       # Time in different power states
system.mem_ctrl.rank0.actEnergy               3312960                       # Energy for activate commands per rank (pJ)
system.mem_ctrl.rank0.preEnergy               1760880                       # Energy for precharge commands per rank (pJ)
system.mem_ctrl.rank0.readEnergy             14594160                       # Energy for read commands per rank (pJ)
system.mem_ctrl.rank0.writeEnergy             1325880                       # Energy for write commands per rank (pJ)
system.mem_ctrl.rank0.refreshEnergy      295641840.000000                       # Energy for refresh commands per rank (pJ)
system.mem_ctrl.rank0.actBackEnergy         405207870                       # Energy for active background per rank (pJ)
system.mem_ctrl.rank0.preBackEnergy        1098820320                       # Energy for precharge background per rank (pJ)
system.mem_ctrl.rank0.actPowerDownEnergy            0                       # Energy for active power-down per rank (pJ)
system.mem_ctrl.rank0.prePowerDownEnergy            0                       # Energy for precharge power-down per rank (pJ)
system.mem_ctrl.rank0.selfRefreshEnergy             0                       # Energy for self refresh per rank (pJ)
system.mem_ctrl.rank0.totalEnergy          1820663910                       # Total energy per rank (pJ)
system.mem_ctrl.rank0.averagePower         485.494193                       # Core power per rank (mW)
system.mem_ctrl.rank0.totalIdleTime                 0                       # Total Idle time Per DRAM Rank
system.mem_ctrl.rank0.memoryStateTime::IDLE   2852887500                       # Time in different power states
system.mem_ctrl.rank0.memoryStateTime::REF    125060000                       # Time in different power states
system.mem_ctrl.rank0.memoryStateTime::SREF            0                       # Time in different power states
system.mem_ctrl.rank0.memoryStateTime::PRE_PDN            0                       # Time in different power states
system.mem_ctrl.rank0.memoryStateTime::ACT    772177500                       # Time in different power states
system.mem_ctrl.rank0.memoryStateTime::ACT_PDN            0                       # Time in different power states
system.mem_ctrl.power_state.pwrStateResidencyTicks::UNDEFINED   3750125000                       # Cumulative time (in ticks) in various power states
system.cache_medium.blocked_cycles::no_mshrs            0                       # number of cycles access was blocked
system.cache_medium.blocked_cycles::no_targets            0                       # number of cycles access was blocked
system.cache_medium.blocked::no_mshrs               0                       # number of cycles access was blocked
system.cache_medium.blocked::no_targets             0                       # number of cycles access was blocked
system.cache_medium.avg_blocked_cycles::no_mshrs          nan                       # average number of cycles each access was blocked
system.cache_medium.avg_blocked_cycles::no_targets          nan                       # average number of cycles each access was blocked
system.cache_medium.replacements                    0                       # number of replacements
system.cache_medium.power_state.pwrStateResidencyTicks::UNDEFINED   3750125000                       # Cumulative time (in ticks) in various power states
system.cache_medium.tags.tagsinuse                  0                       # Cycle average of tags in use
system.cache_medium.tags.total_refs                 0                       # Total number of references to valid blocks.
system.cache_medium.tags.sampled_refs               0                       # Sample count of references to valid blocks.
system.cache_medium.tags.avg_refs                 nan                       # Average number of references to valid blocks.
system.cache_medium.tags.warmup_cycle               0                       # Cycle when the warmup percentage was hit.
system.cache_medium.tags.tag_accesses               0                       # Number of tag accesses
system.cache_medium.tags.data_accesses              0                       # Number of data accesses
system.cache_medium.tags.power_state.pwrStateResidencyTicks::UNDEFINED   3750125000                       # Cumulative time (in ticks) in various power states
system.clk_domain.clock                          1000                       # Clock period in ticks
system.clk_domain.voltage_domain.voltage            1                       # Voltage in Volts
system.dcache.demand_hits::.cpu.data           345727                       # number of demand (read+write) hits
system.dcache.demand_hits::total               345727                       # number of demand (read+write) hits
system.dcache.overall_hits::.cpu.data          345783                       # number of overall hits
system.dcache.overall_hits::total              345783                       # number of overall hits
system.dcache.demand_misses::.cpu.data           6648                       # number of demand (read+write) misses
system.dcache.demand_misses::total               6648                       # number of demand (read+write) misses
system.dcache.overall_misses::.cpu.data          6665                       # number of overall misses
system.dcache.overall_misses::total              6665                       # number of overall misses
system.dcache.demand_miss_latency::.cpu.data    223195000                       # number of demand (read+write) miss cycles
system.dcache.demand_miss_latency::total    223195000                       # number of demand (read+write) miss cycles
system.dcache.overall_miss_latency::.cpu.data    224026000                       # number of overall miss cycles
system.dcache.overall_miss_latency::total    224026000                       # number of overall miss cycles
system.dcache.demand_accesses::.cpu.data       352375                       # number of demand (read+write) accesses
system.dcache.demand_accesses::total           352375                       # number of demand (read+write) accesses
system.dcache.overall_accesses::.cpu.data       352448                       # number of overall (read+write) accesses
system.dcache.overall_accesses::total          352448                       # number of overall (read+write) accesses
system.dcache.demand_miss_rate::.cpu.data     0.018866                       # miss rate for demand accesses
system.dcache.demand_miss_rate::total        0.018866                       # miss rate for demand accesses
system.dcache.overall_miss_rate::.cpu.data     0.018911                       # miss rate for overall accesses
system.dcache.overall_miss_rate::total       0.018911                       # miss rate for overall accesses
system.dcache.demand_avg_miss_latency::.cpu.data 33573.255114                       # average overall miss latency
system.dcache.demand_avg_miss_latency::total 33573.255114                       # average overall miss latency
system.dcache.overall_avg_miss_latency::.cpu.data 33612.303076                       # average overall miss latency
system.dcache.overall_avg_miss_latency::total 33612.303076                       # average overall miss latency
system.dcache.blocked_cycles::no_mshrs              0                       # number of cycles access was blocked
system.dcache.blocked_cycles::no_targets            0                       # number of cycles access was blocked
system.dcache.blocked::no_mshrs                     0                       # number of cycles access was blocked
system.dcache.blocked::no_targets                   0                       # number of cycles access was blocked
system.dcache.avg_blocked_cycles::no_mshrs          nan                       # average number of cycles each access was blocked
system.dcache.avg_blocked_cycles::no_targets          nan                       # average number of cycles each access was blocked
system.dcache.writebacks::.writebacks            3521                       # number of writebacks
system.dcache.writebacks::total                  3521                       # number of writebacks
system.dcache.demand_mshr_misses::.cpu.data         6648                       # number of demand (read+write) MSHR misses
system.dcache.demand_mshr_misses::total          6648                       # number of demand (read+write) MSHR misses
system.dcache.overall_mshr_misses::.cpu.data         6665                       # number of overall MSHR misses
system.dcache.overall_mshr_misses::total         6665                       # number of overall MSHR misses
system.dcache.demand_mshr_miss_latency::.cpu.data    209901000                       # number of demand (read+write) MSHR miss cycles
system.dcache.demand_mshr_miss_latency::total    209901000                       # number of demand (read+write) MSHR miss cycles
system.dcache.overall_mshr_miss_latency::.cpu.data    210698000                       # number of overall MSHR miss cycles
system.dcache.overall_mshr_miss_latency::total    210698000                       # number of overall MSHR miss cycles
system.dcache.demand_mshr_miss_rate::.cpu.data     0.018866                       # mshr miss rate for demand accesses
system.dcache.demand_mshr_miss_rate::total     0.018866                       # mshr miss rate for demand accesses
[...]
system.dcache.tags.age_task_id_blocks_1024::2          108                       # Occupied blocks per task id
system.dcache.tags.age_task_id_blocks_1024::3           15                       # Occupied blocks per task id
system.dcache.tags.occ_task_id_percent::1024            1                       # Percentage of cache occupancy per task id
system.dcache.tags.tag_accesses               2817383                       # Number of tag accesses
system.dcache.tags.data_accesses              2817383                       # Number of data accesses
system.dcache.tags.power_state.pwrStateResidencyTicks::UNDEFINED  29074131000                       # Cumulative time (in ticks) in various power states
system.cache_large.blocked_cycles::no_mshrs            0                       # number of cycles access was blocked
system.cache_large.blocked_cycles::no_targets            0                       # number of cycles access was blocked
system.cache_large.blocked::no_mshrs                0                       # number of cycles access was blocked
system.cache_large.blocked::no_targets              0                       # number of cycles access was blocked
system.cache_large.avg_blocked_cycles::no_mshrs          nan                       # average number of cycles each access was blocked
system.cache_large.avg_blocked_cycles::no_targets          nan                       # average number of cycles each access was blocked
system.cache_large.replacements                     0                       # number of replacements
system.cache_large.power_state.pwrStateResidencyTicks::UNDEFINED  29074131000                       # Cumulative time (in ticks) in various power states
system.cache_large.tags.tagsinuse                   0                       # Cycle average of tags in use
system.cache_large.tags.total_refs                  0                       # Total number of references to valid blocks.
system.cache_large.tags.sampled_refs                0                       # Sample count of references to valid blocks.
system.cache_large.tags.avg_refs                  nan                       # Average number of references to valid blocks.
system.cache_large.tags.warmup_cycle                0                       # Cycle when the warmup percentage was hit.
system.cache_large.tags.tag_accesses                0                       # Number of tag accesses
system.cache_large.tags.data_accesses               0                       # Number of data accesses
system.cache_large.tags.power_state.pwrStateResidencyTicks::UNDEFINED  29074131000                       # Cumulative time (in ticks) in various power states
system.l2cache.demand_hits::.cpu.inst           28580                       # number of demand (read+write) hits
system.l2cache.demand_hits::.cpu.data           30405                       # number of demand (read+write) hits
system.l2cache.demand_hits::total               58985                       # number of demand (read+write) hits
system.l2cache.overall_hits::.cpu.inst          28580                       # number of overall hits
system.l2cache.overall_hits::.cpu.data          30405                       # number of overall hits
system.l2cache.overall_hits::total              58985                       # number of overall hits
system.l2cache.demand_misses::.cpu.inst         94200                       # number of demand (read+write) misses
system.l2cache.demand_misses::.cpu.data         29880                       # number of demand (read+write) misses
system.l2cache.demand_misses::total            124080                       # number of demand (read+write) misses
system.l2cache.overall_misses::.cpu.inst        94200                       # number of overall misses
system.l2cache.overall_misses::.cpu.data        29880                       # number of overall misses
system.l2cache.overall_misses::total           124080                       # number of overall misses
system.l2cache.demand_miss_latency::.cpu.inst   2852587000                       # number of demand (read+write) miss cycles
system.l2cache.demand_miss_latency::.cpu.data    787974000                       # number of demand (read+write) miss cycles
system.l2cache.demand_miss_latency::total   3640561000                       # number of demand (read+write) miss cycles
system.l2cache.overall_miss_latency::.cpu.inst   2852587000                       # number of overall miss cycles
system.l2cache.overall_miss_latency::.cpu.data    787974000                       # number of overall miss cycles
system.l2cache.overall_miss_latency::total   3640561000                       # number of overall miss cycles
system.l2cache.demand_accesses::.cpu.inst       122780                       # number of demand (read+write) accesses
system.l2cache.demand_accesses::.cpu.data        60285                       # number of demand (read+write) accesses
system.l2cache.demand_accesses::total          183065                       # number of demand (read+write) accesses
system.l2cache.overall_accesses::.cpu.inst       122780                       # number of overall (read+write) accesses
system.l2cache.overall_accesses::.cpu.data        60285                       # number of overall (read+write) accesses
system.l2cache.overall_accesses::total         183065                       # number of overall (read+write) accesses
system.l2cache.demand_miss_rate::.cpu.inst     0.767226                       # miss rate for demand accesses
system.l2cache.demand_miss_rate::.cpu.data     0.495646                       # miss rate for demand accesses
system.l2cache.demand_miss_rate::total       0.677792                       # miss rate for demand accesses
system.l2cache.overall_miss_rate::.cpu.inst     0.767226                       # miss rate for overall accesses
system.l2cache.overall_miss_rate::.cpu.data     0.495646                       # miss rate for overall accesses
system.l2cache.overall_miss_rate::total      0.677792                       # miss rate for overall accesses
system.l2cache.demand_avg_miss_latency::.cpu.inst 30282.239915                       # average overall miss latency
system.l2cache.demand_avg_miss_latency::.cpu.data 26371.285141                       # average overall miss latency
system.l2cache.demand_avg_miss_latency::total 29340.433591                       # average overall miss latency
system.l2cache.overall_avg_miss_latency::.cpu.inst 30282.239915                       # average overall miss latency
system.l2cache.overall_avg_miss_latency::.cpu.data 26371.285141                       # average overall miss latency
system.l2cache.overall_avg_miss_latency::total 29340.433591                       # average overall miss latency
system.l2cache.blocked_cycles::no_mshrs             0                       # number of cycles access was blocked
system.l2cache.blocked_cycles::no_targets            0                       # number of cycles access was blocked
system.l2cache.blocked::no_mshrs                    0                       # number of cycles access was blocked
system.l2cache.blocked::no_targets                  0                       # number of cycles access was blocked
system.l2cache.avg_blocked_cycles::no_mshrs          nan                       # average number of cycles each access was blocked
system.l2cache.avg_blocked_cycles::no_targets          nan                       # average number of cycles each access was blocked
system.l2cache.writebacks::.writebacks          21944                       # number of writebacks
system.l2cache.writebacks::total                21944                       # number of writebacks
system.l2cache.demand_mshr_misses::.cpu.inst        94200                       # number of demand (read+write) MSHR misses
system.l2cache.demand_mshr_misses::.cpu.data        29880                       # number of demand (read+write) MSHR misses
system.l2cache.demand_mshr_misses::total       124080                       # number of demand (read+write) MSHR misses
system.l2cache.overall_mshr_misses::.cpu.inst        94200                       # number of overall MSHR misses
system.l2cache.overall_mshr_misses::.cpu.data        29880                       # number of overall MSHR misses
system.l2cache.overall_mshr_misses::total       124080                       # number of overall MSHR misses
system.l2cache.demand_mshr_miss_latency::.cpu.inst   2664187000                       # number of demand (read+write) MSHR miss cycles
system.l2cache.demand_mshr_miss_latency::.cpu.data    728214000                       # number of demand (read+write) MSHR miss cycles
system.l2cache.demand_mshr_miss_latency::total   3392401000                       # number of demand (read+write) MSHR miss cycles
system.l2cache.overall_mshr_miss_latency::.cpu.inst   2664187000                       # number of overall MSHR miss cycles
system.l2cache.overall_mshr_miss_latency::.cpu.data    728214000                       # number of overall MSHR miss cycles
system.l2cache.overall_mshr_miss_latency::total   3392401000                       # number of overall MSHR miss cycles
system.l2cache.demand_mshr_miss_rate::.cpu.inst     0.767226                       # mshr miss rate for demand accesses
system.l2cache.demand_mshr_miss_rate::.cpu.data     0.495646                       # mshr miss rate for demand accesses
system.l2cache.demand_mshr_miss_rate::total     0.677792                       # mshr miss rate for demand accesses
system.l2cache.overall_mshr_miss_rate::.cpu.inst     0.767226                       # mshr miss rate for overall accesses
system.l2cache.overall_mshr_miss_rate::.cpu.data     0.495646                       # mshr miss rate for overall accesses
system.l2cache.overall_mshr_miss_rate::total     0.677792                       # mshr miss rate for overall accesses
system.l2cache.demand_avg_mshr_miss_latency::.cpu.inst 28282.239915                       # average overall mshr miss latency
system.l2cache.demand_avg_mshr_miss_latency::.cpu.data 24371.285141                       # average overall mshr miss latency
system.l2cache.demand_avg_mshr_miss_latency::total 27340.433591                       # average overall mshr miss latency
system.l2cache.overall_avg_mshr_miss_latency::.cpu.inst 28282.239915                       # average overall mshr miss latency
system.l2cache.overall_avg_mshr_miss_latency::.cpu.data 24371.285141                       # average overall mshr miss latency
system.l2cache.overall_avg_mshr_miss_latency::total 27340.433591                       # average overall mshr miss latency
system.l2cache.replacements                    142435                       # number of replacements
system.l2cache.ReadReq_hits::.cpu.inst          28580                       # number of ReadReq hits
system.l2cache.ReadReq_hits::.cpu.data          30405                       # number of ReadReq hits
system.l2cache.ReadReq_hits::total              58985                       # number of ReadReq hits
system.l2cache.ReadReq_misses::.cpu.inst        94200                       # number of ReadReq misses
system.l2cache.ReadReq_misses::.cpu.data        29880                       # number of ReadReq misses
system.l2cache.ReadReq_misses::total           124080                       # number of ReadReq misses
system.l2cache.ReadReq_miss_latency::.cpu.inst   2852587000                       # number of ReadReq miss cycles
system.l2cache.ReadReq_miss_latency::.cpu.data    787974000                       # number of ReadReq miss cycles
system.l2cache.ReadReq_miss_latency::total   3640561000                       # number of ReadReq miss cycles
system.l2cache.ReadReq_accesses::.cpu.inst       122780                       # number of ReadReq accesses(hits+misses)
system.l2cache.ReadReq_accesses::.cpu.data        60285                       # number of ReadReq accesses(hits+misses)
system.l2cache.ReadReq_accesses::total         183065                       # number of ReadReq accesses(hits+misses)
system.l2cache.ReadReq_miss_rate::.cpu.inst     0.767226                       # miss rate for ReadReq accesses
system.l2cache.ReadReq_miss_rate::.cpu.data     0.495646                       # miss rate for ReadReq accesses
system.l2cache.ReadReq_miss_rate::total      0.677792                       # miss rate for ReadReq accesses
system.l2cache.ReadReq_avg_miss_latency::.cpu.inst 30282.239915                       # average ReadReq miss latency
system.l2cache.ReadReq_avg_miss_latency::.cpu.data 26371.285141                       # average ReadReq miss latency
system.l2cache.ReadReq_avg_miss_latency::total 29340.433591                       # average ReadReq miss latency
system.l2cache.ReadReq_mshr_misses::.cpu.inst        94200                       # number of ReadReq MSHR misses
system.l2cache.ReadReq_mshr_misses::.cpu.data        29880                       # number of ReadReq MSHR misses
system.l2cache.ReadReq_mshr_misses::total       124080                       # number of ReadReq MSHR misses
system.l2cache.ReadReq_mshr_miss_latency::.cpu.inst   2664187000                       # number of ReadReq MSHR miss cycles
system.l2cache.ReadReq_mshr_miss_latency::.cpu.data    728214000                       # number of ReadReq MSHR miss cycles
system.l2cache.ReadReq_mshr_miss_latency::total   3392401000                       # number of ReadReq MSHR miss cycles
system.l2cache.ReadReq_mshr_miss_rate::.cpu.inst     0.767226                       # mshr miss rate for ReadReq accesses
system.l2cache.ReadReq_mshr_miss_rate::.cpu.data     0.495646                       # mshr miss rate for ReadReq accesses
system.l2cache.ReadReq_mshr_miss_rate::total     0.677792                       # mshr miss rate for ReadReq accesses
system.l2cache.ReadReq_avg_mshr_miss_latency::.cpu.inst 28282.239915                       # average ReadReq mshr miss latency
system.l2cache.ReadReq_avg_mshr_miss_latency::.cpu.data 24371.285141                       # average ReadReq mshr miss latency
system.l2cache.ReadReq_avg_mshr_miss_latency::total 27340.433591                       # average ReadReq mshr miss latency
system.l2cache.WritebackDirty_hits::.writebacks        28777                       # number of WritebackDirty hits
system.l2cache.WritebackDirty_hits::total        28777                       # number of WritebackDirty hits
system.l2cache.WritebackDirty_accesses::.writebacks        28777                       # number of WritebackDirty accesses(hits+misses)
system.l2cache.WritebackDirty_accesses::total        28777                       # number of WritebackDirty accesses(hits+misses)
system.l2cache.power_state.pwrStateResidencyTicks::UNDEFINED  29074131000                       # Cumulative time (in ticks) in various power states
system.l2cache.tags.tagsinuse              510.316845                       # Cycle average of tags in use
system.l2cache.tags.total_refs                 211842                       # Total number of references to valid blocks.
system.l2cache.tags.sampled_refs               142947                       # Sample count of references to valid blocks.
system.l2cache.tags.avg_refs                 1.481962                       # Average number of references to valid blocks.
system.l2cache.tags.warmup_cycle                78000                       # Cycle when the warmup percentage was hit.
system.l2cache.tags.occ_blocks::.writebacks    73.210442                       # Average occupied blocks per requestor
system.l2cache.tags.occ_blocks::.cpu.inst   302.768081                       # Average occupied blocks per requestor
system.l2cache.tags.occ_blocks::.cpu.data   134.338323                       # Average occupied blocks per requestor
system.l2cache.tags.occ_percent::.writebacks     0.142989                       # Average percentage of cache occupancy
system.l2cache.tags.occ_percent::.cpu.inst     0.591344                       # Average percentage of cache occupancy
system.l2cache.tags.occ_percent::.cpu.data     0.262380                       # Average percentage of cache occupancy
system.l2cache.tags.occ_percent::total       0.996713                       # Average percentage of cache occupancy
system.l2cache.tags.occ_task_id_blocks::1024          512                       # Occupied blocks per task id
system.l2cache.tags.age_task_id_blocks_1024::0           57                       # Occupied blocks per task id
system.l2cache.tags.age_task_id_blocks_1024::1          219                       # Occupied blocks per task id
system.l2cache.tags.age_task_id_blocks_1024::2          235                       # Occupied blocks per task id
system.l2cache.tags.age_task_id_blocks_1024::3            1                       # Occupied blocks per task id
system.l2cache.tags.occ_task_id_percent::1024            1                       # Percentage of cache occupancy per task id
system.l2cache.tags.tag_accesses               354789                       # Number of tag accesses
system.l2cache.tags.data_accesses              354789                       # Number of data accesses
system.l2cache.tags.power_state.pwrStateResidencyTicks::UNDEFINED  29074131000                       # Cumulative time (in ticks) in various power states
system.l2bar.trans_dist::ReadReq               183065                       # Transaction distribution
system.l2bar.trans_dist::ReadResp              183065                       # Transaction distribution
system.l2bar.trans_dist::WritebackDirty         28777                       # Transaction distribution
system.l2bar.pkt_count_system.dcache.mem_side::system.l2cache.cpu_side       149347                       # Packet count per connected master and slave (bytes)
system.l2bar.pkt_count_system.icache.mem_side::system.l2cache.cpu_side       245560                       # Packet count per connected master and slave (bytes)
system.l2bar.pkt_count::total                  394907                       # Packet count per connected master and slave (bytes)
system.l2bar.pkt_size_system.dcache.mem_side::system.l2cache.cpu_side      5699968                       # Cumulative packet size per connected master and slave (bytes)
system.l2bar.pkt_size_system.icache.mem_side::system.l2cache.cpu_side      7857920                       # Cumulative packet size per connected master and slave (bytes)
system.l2bar.pkt_size::total                 13557888                       # Cumulative packet size per connected master and slave (bytes)
system.l2bar.respLayer1.occupancy           613900000                       # Layer occupancy (ticks)
system.l2bar.respLayer1.utilization               2.1                       # Layer utilization (%)
system.l2bar.reqLayer0.occupancy            326950000                       # Layer occupancy (ticks)
system.l2bar.reqLayer0.utilization                1.1                       # Layer utilization (%)
system.l2bar.respLayer0.occupancy           301425000                       # Layer occupancy (ticks)
system.l2bar.respLayer0.utilization               1.0                       # Layer utilization (%)
system.l2bar.power_state.pwrStateResidencyTicks::UNDEFINED  29074131000                       # Cumulative time (in ticks) in various power states
system.cpu.dtb.walker.power_state.pwrStateResidencyTicks::UNDEFINED  29074131000                       # Cumulative time (in ticks) in various power states
system.cpu.interrupts.clk_domain.clock          16000                       # Clock period in ticks
system.cpu.itb.walker.power_state.pwrStateResidencyTicks::UNDEFINED  29074131000                       # Cumulative time (in ticks) in various power states
system.cpu.power_state.numTransitions               1                       # Number of power state transitions
system.cpu.power_state.pwrStateResidencyTicks::ON  29074131000                       # Cumulative time (in ticks) in various power states

---------- End Simulation Statistics   ----------
