
---------- Begin Simulation Statistics ----------
final_tick                                 4039613000                       # Number of ticks from beginning of simulation (restored from checkpoints and never reset)
host_inst_rate                                 104735                       # Simulator instruction rate (inst/s)
host_mem_usage                               34373656                       # Number of bytes of host memory used
host_op_rate                                   215809                       # Simulator op (including micro ops) rate (op/s)
host_seconds                                     9.55                       # Real time elapsed on the host
host_tick_rate                              423008309                       # Simulator tick rate (ticks/s)
sim_freq                                 1000000000000                       # Frequency of simulated ticks
sim_insts                                     1000159                       # Number of instructions simulated
sim_ops                                       2060905                       # Number of ops (including micro ops) simulated
sim_seconds                                  0.004040                       # Number of seconds simulated
sim_ticks                                  4039613000                       # Number of ticks simulated
system.cpu.Branches                            239834                       # Number of branches fetched
system.cpu.committedInsts                     1000159                       # Number of instructions committed
system.cpu.committedOps                       2060905                       # Number of ops (including micro ops) committed
system.cpu.dtb.rdAccesses                      201733                       # TLB accesses on read requests
system.cpu.dtb.rdMisses                            74                       # TLB misses on read requests
system.cpu.dtb.wrAccesses                      139322                       # TLB accesses on write requests
system.cpu.dtb.wrMisses                            63                       # TLB misses on write requests
system.cpu.idle_fraction                            0                       # Percentage of idle cycles
system.cpu.itb.rdAccesses                           0                       # TLB accesses on read requests
system.cpu.itb.rdMisses                             0                       # TLB misses on read requests
system.cpu.itb.wrAccesses                     1319746                       # TLB accesses on write requests
system.cpu.itb.wrMisses                           164                       # TLB misses on write requests
system.cpu.not_idle_fraction                        1                       # Percentage of non-idle cycles
system.cpu.numCycles                          4039602                       # number of cpu cycles simulated
system.cpu.numWorkItemsCompleted                    0                       # number of work items this cpu completed
system.cpu.numWorkItemsStarted                      0                       # number of work items this cpu started
system.cpu.num_busy_cycles                    4039602                       # Number of busy cycles
system.cpu.num_cc_register_reads              1493580                       # number of times the CC registers were read
system.cpu.num_cc_register_writes              634990                       # number of times the CC registers were written
system.cpu.num_conditional_control_insts       176994                       # number of instructions that are conditional controls
system.cpu.num_fp_alu_accesses                  81085                       # Number of float alu accesses
system.cpu.num_fp_insts                         81085                       # number of float instructions
system.cpu.num_fp_register_reads               136044                       # number of times the floating registers were read
system.cpu.num_fp_register_writes               68785                       # number of times the floating registers were written
system.cpu.num_func_calls                       43104                       # number of times a function call or return occured
system.cpu.num_idle_cycles                          0                       # Number of idle cycles
system.cpu.num_int_alu_accesses               1990609                       # Number of integer alu accesses
system.cpu.num_int_insts                      1990609                       # number of integer instructions
system.cpu.num_int_register_reads             3845099                       # number of times the integer registers were read
system.cpu.num_int_register_writes            1604065                       # number of times the integer registers were written
system.cpu.num_load_insts                      201380                       # Number of load instructions
system.cpu.num_mem_refs                        340611                       # number of memory refs
system.cpu.num_store_insts                     139231                       # Number of store instructions
system.cpu.num_vec_alu_accesses                     0                       # Number of vector alu accesses
system.cpu.num_vec_insts                            0                       # number of vector instructions
system.cpu.num_vec_register_reads                   0                       # number of times the vector registers were read
system.cpu.num_vec_register_writes                  0                       # number of times the vector registers were written
system.cpu.op_class::No_OpClass                 14313      0.69%      0.69% # Class of executed instruction
system.cpu.op_class::IntAlu                   1644182     79.78%     80.47% # Class of executed instruction
system.cpu.op_class::IntMult                       20      0.00%     80.47% # Class of executed instruction
system.cpu.op_class::IntDiv                        42      0.00%     80.48% # Class of executed instruction
system.cpu.op_class::FloatAdd                    2023      0.10%     80.57% # Class of executed instruction
system.cpu.op_class::FloatCmp                       0      0.00%     80.57% # Class of executed instruction
system.cpu.op_class::FloatCvt                       0      0.00%     80.57% # Class of executed instruction
system.cpu.op_class::FloatMult                      0      0.00%     80.57% # Class of executed instruction
system.cpu.op_class::FloatMultAcc                   0      0.00%     80.57% # Class of executed instruction
system.cpu.op_class::FloatDiv                       0      0.00%     80.57% # Class of executed instruction
system.cpu.op_class::FloatMisc                      0      0.00%     80.57% # Class of executed instruction
system.cpu.op_class::FloatSqrt                      0      0.00%     80.57% # Class of executed instruction
system.cpu.op_class::SimdAdd                       20      0.00%     80.58% # Class of executed instruction
system.cpu.op_class::SimdAddAcc                     0      0.00%     80.58% # Class of executed instruction
system.cpu.op_class::SimdAlu                    20440      0.99%     81.57% # Class of executed instruction
system.cpu.op_class::SimdCmp                      448      0.02%     81.59% # Class of executed instruction
system.cpu.op_class::SimdCvt                    14338      0.70%     82.28% # Class of executed instruction
system.cpu.op_class::SimdMisc                   24468      1.19%     83.47% # Class of executed instruction
system.cpu.op_class::SimdMult                       0      0.00%     83.47% # Class of executed instruction
system.cpu.op_class::SimdMultAcc                    0      0.00%     83.47% # Class of executed instruction
system.cpu.op_class::SimdShift                      0      0.00%     83.47% # Class of executed instruction
system.cpu.op_class::SimdShiftAcc                   0      0.00%     83.47% # Class of executed instruction
system.cpu.op_class::SimdDiv                        0      0.00%     83.47% # Class of executed instruction
system.cpu.op_class::SimdSqrt                       0      0.00%     83.47% # Class of executed instruction
system.cpu.op_class::SimdFloatAdd                   0      0.00%     83.47% # Class of executed instruction
system.cpu.op_class::SimdFloatAlu                   0      0.00%     83.47% # Class of executed instruction
system.cpu.op_class::SimdFloatCmp                   0      0.00%     83.47% # Class of executed instruction
system.cpu.op_class::SimdFloatCvt                   0      0.00%     83.47% # Class of executed instruction
system.cpu.op_class::SimdFloatDiv                  25      0.00%     83.47% # Class of executed instruction
system.cpu.op_class::SimdFloatMisc                  0      0.00%     83.47% # Class of executed instruction
system.cpu.op_class::SimdFloatMult                  0      0.00%     83.47% # Class of executed instruction
system.cpu.op_class::SimdFloatMultAcc               0      0.00%     83.47% # Class of executed instruction
system.cpu.op_class::SimdFloatSqrt                  0      0.00%     83.47% # Class of executed instruction
system.cpu.op_class::SimdReduceAdd                  0      0.00%     83.47% # Class of executed instruction
system.cpu.op_class::SimdReduceAlu                  0      0.00%     83.47% # Class of executed instruction
system.cpu.op_class::SimdReduceCmp                  0      0.00%     83.47% # Class of executed instruction
system.cpu.op_class::SimdFloatReduceAdd             0      0.00%     83.47% # Class of executed instruction
system.cpu.op_class::SimdFloatReduceCmp             0      0.00%     83.47% # Class of executed instruction
system.cpu.op_class::SimdAes                        0      0.00%     83.47% # Class of executed instruction
system.cpu.op_class::SimdAesMix                     0      0.00%     83.47% # Class of executed instruction
system.cpu.op_class::SimdSha1Hash                   0      0.00%     83.47% # Class of executed instruction
system.cpu.op_class::SimdSha1Hash2                  0      0.00%     83.47% # Class of executed instruction
system.cpu.op_class::SimdSha256Hash                 0      0.00%     83.47% # Class of executed instruction
system.cpu.op_class::SimdSha256Hash2                0      0.00%     83.47% # Class of executed instruction
system.cpu.op_class::SimdShaSigma2                  0      0.00%     83.47% # Class of executed instruction
system.cpu.op_class::SimdShaSigma3                  0      0.00%     83.47% # Class of executed instruction
system.cpu.op_class::SimdPredAlu                    0      0.00%     83.47% # Class of executed instruction
system.cpu.op_class::MemRead                   190086      9.22%     92.70% # Class of executed instruction
system.cpu.op_class::MemWrite                  137238      6.66%     99.36% # Class of executed instruction
system.cpu.op_class::FloatMemRead               11294      0.55%     99.90% # Class of executed instruction
system.cpu.op_class::FloatMemWrite               1993      0.10%    100.00% # Class of executed instruction
system.cpu.op_class::IprAccess                      0      0.00%    100.00% # Class of executed instruction
system.cpu.op_class::InstPrefetch                   0      0.00%    100.00% # Class of executed instruction
system.cpu.op_class::total                    2060930                       # Class of executed instruction
system.cpu.workload.numSyscalls                    88                       # Number of system calls
system.dynamic_cache.flushTicks                     0                       # Ticks taken to flush
system.dynamic_cache.numFlushes                     0                       # Number of Flushes Taken
system.cache_small.demand_hits::.cpu.inst        12905                       # number of demand (read+write) hits
system.cache_small.demand_hits::.cpu.data         1694                       # number of demand (read+write) hits
system.cache_small.demand_hits::total           14599                       # number of demand (read+write) hits
system.cache_small.overall_hits::.cpu.inst        12905                       # number of overall hits
system.cache_small.overall_hits::.cpu.data         1694                       # number of overall hits
system.cache_small.overall_hits::total          14599                       # number of overall hits
system.cache_small.demand_misses::.cpu.inst         1797                       # number of demand (read+write) misses
system.cache_small.demand_misses::.cpu.data         2218                       # number of demand (read+write) misses
system.cache_small.demand_misses::total          4015                       # number of demand (read+write) misses
system.cache_small.overall_misses::.cpu.inst         1797                       # number of overall misses
system.cache_small.overall_misses::.cpu.data         2218                       # number of overall misses
system.cache_small.overall_misses::total         4015                       # number of overall misses
system.cache_small.demand_miss_latency::.cpu.inst    108502000                       # number of demand (read+write) miss cycles
system.cache_small.demand_miss_latency::.cpu.data    138595000                       # number of demand (read+write) miss cycles
system.cache_small.demand_miss_latency::total    247097000                       # number of demand (read+write) miss cycles
system.cache_small.overall_miss_latency::.cpu.inst    108502000                       # number of overall miss cycles
system.cache_small.overall_miss_latency::.cpu.data    138595000                       # number of overall miss cycles
system.cache_small.overall_miss_latency::total    247097000                       # number of overall miss cycles
system.cache_small.demand_accesses::.cpu.inst        14702                       # number of demand (read+write) accesses
system.cache_small.demand_accesses::.cpu.data         3912                       # number of demand (read+write) accesses
system.cache_small.demand_accesses::total        18614                       # number of demand (read+write) accesses
system.cache_small.overall_accesses::.cpu.inst        14702                       # number of overall (read+write) accesses
system.cache_small.overall_accesses::.cpu.data         3912                       # number of overall (read+write) accesses
system.cache_small.overall_accesses::total        18614                       # number of overall (read+write) accesses
system.cache_small.demand_miss_rate::.cpu.inst     0.122228                       # miss rate for demand accesses
system.cache_small.demand_miss_rate::.cpu.data     0.566973                       # miss rate for demand accesses
system.cache_small.demand_miss_rate::total     0.215698                       # miss rate for demand accesses
system.cache_small.overall_miss_rate::.cpu.inst     0.122228                       # miss rate for overall accesses
system.cache_small.overall_miss_rate::.cpu.data     0.566973                       # miss rate for overall accesses
system.cache_small.overall_miss_rate::total     0.215698                       # miss rate for overall accesses
system.cache_small.demand_avg_miss_latency::.cpu.inst 60379.521425                       # average overall miss latency
system.cache_small.demand_avg_miss_latency::.cpu.data 62486.474301                       # average overall miss latency
system.cache_small.demand_avg_miss_latency::total 61543.462017                       # average overall miss latency
system.cache_small.overall_avg_miss_latency::.cpu.inst 60379.521425                       # average overall miss latency
system.cache_small.overall_avg_miss_latency::.cpu.data 62486.474301                       # average overall miss latency
system.cache_small.overall_avg_miss_latency::total 61543.462017                       # average overall miss latency
system.cache_small.blocked_cycles::no_mshrs            0                       # number of cycles access was blocked
system.cache_small.blocked_cycles::no_targets            0                       # number of cycles access was blocked
system.cache_small.blocked::no_mshrs                0                       # number of cycles access was blocked
system.cache_small.blocked::no_targets              0                       # number of cycles access was blocked
system.cache_small.avg_blocked_cycles::no_mshrs          nan                       # average number of cycles each access was blocked
system.cache_small.avg_blocked_cycles::no_targets          nan                       # average number of cycles each access was blocked
system.cache_small.demand_mshr_misses::.cpu.inst         1797                       # number of demand (read+write) MSHR misses
system.cache_small.demand_mshr_misses::.cpu.data         2218                       # number of demand (read+write) MSHR misses
system.cache_small.demand_mshr_misses::total         4015                       # number of demand (read+write) MSHR misses
system.cache_small.overall_mshr_misses::.cpu.inst         1797                       # number of overall MSHR misses
system.cache_small.overall_mshr_misses::.cpu.data         2218                       # number of overall MSHR misses
system.cache_small.overall_mshr_misses::total         4015                       # number of overall MSHR misses
system.cache_small.demand_mshr_miss_latency::.cpu.inst    104908000                       # number of demand (read+write) MSHR miss cycles
system.cache_small.demand_mshr_miss_latency::.cpu.data    134159000                       # number of demand (read+write) MSHR miss cycles
system.cache_small.demand_mshr_miss_latency::total    239067000                       # number of demand (read+write) MSHR miss cycles
system.cache_small.overall_mshr_miss_latency::.cpu.inst    104908000                       # number of overall MSHR miss cycles
system.cache_small.overall_mshr_miss_latency::.cpu.data    134159000                       # number of overall MSHR miss cycles
system.cache_small.overall_mshr_miss_latency::total    239067000                       # number of overall MSHR miss cycles
system.cache_small.demand_mshr_miss_rate::.cpu.inst     0.122228                       # mshr miss rate for demand accesses
system.cache_small.demand_mshr_miss_rate::.cpu.data     0.566973                       # mshr miss rate for demand accesses
system.cache_small.demand_mshr_miss_rate::total     0.215698                       # mshr miss rate for demand accesses
system.cache_small.overall_mshr_miss_rate::.cpu.inst     0.122228                       # mshr miss rate for overall accesses
system.cache_small.overall_mshr_miss_rate::.cpu.data     0.566973                       # mshr miss rate for overall accesses
system.cache_small.overall_mshr_miss_rate::total     0.215698                       # mshr miss rate for overall accesses
system.cache_small.demand_avg_mshr_miss_latency::.cpu.inst 58379.521425                       # average overall mshr miss latency
system.cache_small.demand_avg_mshr_miss_latency::.cpu.data 60486.474301                       # average overall mshr miss latency
system.cache_small.demand_avg_mshr_miss_latency::total 59543.462017                       # average overall mshr miss latency
system.cache_small.overall_avg_mshr_miss_latency::.cpu.inst 58379.521425                       # average overall mshr miss latency
system.cache_small.overall_avg_mshr_miss_latency::.cpu.data 60486.474301                       # average overall mshr miss latency
system.cache_small.overall_avg_mshr_miss_latency::total 59543.462017                       # average overall mshr miss latency
system.cache_small.replacements                     0                       # number of replacements
system.cache_small.ReadReq_hits::.cpu.inst        12905                       # number of ReadReq hits
system.cache_small.ReadReq_hits::.cpu.data         1694                       # number of ReadReq hits
system.cache_small.ReadReq_hits::total          14599                       # number of ReadReq hits
system.cache_small.ReadReq_misses::.cpu.inst         1797                       # number of ReadReq misses
system.cache_small.ReadReq_misses::.cpu.data         2218                       # number of ReadReq misses
system.cache_small.ReadReq_misses::total         4015                       # number of ReadReq misses
system.cache_small.ReadReq_miss_latency::.cpu.inst    108502000                       # number of ReadReq miss cycles
system.cache_small.ReadReq_miss_latency::.cpu.data    138595000                       # number of ReadReq miss cycles
system.cache_small.ReadReq_miss_latency::total    247097000                       # number of ReadReq miss cycles
system.cache_small.ReadReq_accesses::.cpu.inst        14702                       # number of ReadReq accesses(hits+misses)
system.cache_small.ReadReq_accesses::.cpu.data         3912                       # number of ReadReq accesses(hits+misses)
system.cache_small.ReadReq_accesses::total        18614                       # number of ReadReq accesses(hits+misses)
system.cache_small.ReadReq_miss_rate::.cpu.inst     0.122228                       # miss rate for ReadReq accesses
system.cache_small.ReadReq_miss_rate::.cpu.data     0.566973                       # miss rate for ReadReq accesses
system.cache_small.ReadReq_miss_rate::total     0.215698                       # miss rate for ReadReq accesses
system.cache_small.ReadReq_avg_miss_latency::.cpu.inst 60379.521425                       # average ReadReq miss latency
system.cache_small.ReadReq_avg_miss_latency::.cpu.data 62486.474301                       # average ReadReq miss latency
system.cache_small.ReadReq_avg_miss_latency::total 61543.462017                       # average ReadReq miss latency
system.cache_small.ReadReq_mshr_misses::.cpu.inst         1797                       # number of ReadReq MSHR misses
system.cache_small.ReadReq_mshr_misses::.cpu.data         2218                       # number of ReadReq MSHR misses
system.cache_small.ReadReq_mshr_misses::total         4015                       # number of ReadReq MSHR misses
system.cache_small.ReadReq_mshr_miss_latency::.cpu.inst    104908000                       # number of ReadReq MSHR miss cycles
system.cache_small.ReadReq_mshr_miss_latency::.cpu.data    134159000                       # number of ReadReq MSHR miss cycles
system.cache_small.ReadReq_mshr_miss_latency::total    239067000                       # number of ReadReq MSHR miss cycles
system.cache_small.ReadReq_mshr_miss_rate::.cpu.inst     0.122228                       # mshr miss rate for ReadReq accesses
system.cache_small.ReadReq_mshr_miss_rate::.cpu.data     0.566973                       # mshr miss rate for ReadReq accesses
system.cache_small.ReadReq_mshr_miss_rate::total     0.215698                       # mshr miss rate for ReadReq accesses
system.cache_small.ReadReq_avg_mshr_miss_latency::.cpu.inst 58379.521425                       # average ReadReq mshr miss latency
system.cache_small.ReadReq_avg_mshr_miss_latency::.cpu.data 60486.474301                       # average ReadReq mshr miss latency
system.cache_small.ReadReq_avg_mshr_miss_latency::total 59543.462017                       # average ReadReq mshr miss latency
system.cache_small.WritebackDirty_hits::.writebacks         2886                       # number of WritebackDirty hits
system.cache_small.WritebackDirty_hits::total         2886                       # number of WritebackDirty hits
system.cache_small.WritebackDirty_accesses::.writebacks         2886                       # number of WritebackDirty accesses(hits+misses)
system.cache_small.WritebackDirty_accesses::total         2886                       # number of WritebackDirty accesses(hits+misses)
system.cache_small.power_state.pwrStateResidencyTicks::UNDEFINED   4039613000                       # Cumulative time (in ticks) in various power states
system.cache_small.tags.tagsinuse         3025.553311                       # Cycle average of tags in use
system.cache_small.tags.total_refs                  0                       # Total number of references to valid blocks.
system.cache_small.tags.sampled_refs                0                       # Sample count of references to valid blocks.
system.cache_small.tags.avg_refs                  nan                       # Average number of references to valid blocks.
system.cache_small.tags.warmup_cycle            76000                       # Cycle when the warmup percentage was hit.
system.cache_small.tags.occ_blocks::.cpu.inst  1463.846489                       # Average occupied blocks per requestor
system.cache_small.tags.occ_blocks::.cpu.data  1561.706823                       # Average occupied blocks per requestor
system.cache_small.tags.occ_percent::.cpu.inst     0.011168                       # Average percentage of cache occupancy
system.cache_small.tags.occ_percent::.cpu.data     0.011915                       # Average percentage of cache occupancy
system.cache_small.tags.occ_percent::total     0.023083                       # Average percentage of cache occupancy
system.cache_small.tags.occ_task_id_blocks::1024         4015                       # Occupied blocks per task id
system.cache_small.tags.age_task_id_blocks_1024::0            7                       # Occupied blocks per task id
system.cache_small.tags.age_task_id_blocks_1024::1           26                       # Occupied blocks per task id
system.cache_small.tags.age_task_id_blocks_1024::2          181                       # Occupied blocks per task id
system.cache_small.tags.age_task_id_blocks_1024::3         3801                       # Occupied blocks per task id
system.cache_small.tags.occ_task_id_percent::1024     0.030632                       # Percentage of cache occupancy per task id
system.cache_small.tags.tag_accesses            25515                       # Number of tag accesses
system.cache_small.tags.data_accesses           25515                       # Number of data accesses
system.cache_small.tags.power_state.pwrStateResidencyTicks::UNDEFINED   4039613000                       # Cumulative time (in ticks) in various power states
system.icache.demand_hits::.cpu.inst          1298895                       # number of demand (read+write) hits
system.icache.demand_hits::total              1298895                       # number of demand (read+write) hits
system.icache.overall_hits::.cpu.inst         1298895                       # number of overall hits
system.icache.overall_hits::total             1298895                       # number of overall hits
system.icache.demand_misses::.cpu.inst          20851                       # number of demand (read+write) misses
system.icache.demand_misses::total              20851                       # number of demand (read+write) misses
system.icache.overall_misses::.cpu.inst         20851                       # number of overall misses
system.icache.overall_misses::total             20851                       # number of overall misses
system.icache.demand_miss_latency::.cpu.inst    476761000                       # number of demand (read+write) miss cycles
system.icache.demand_miss_latency::total    476761000                       # number of demand (read+write) miss cycles
system.icache.overall_miss_latency::.cpu.inst    476761000                       # number of overall miss cycles
system.icache.overall_miss_latency::total    476761000                       # number of overall miss cycles
system.icache.demand_accesses::.cpu.inst      1319746                       # number of demand (read+write) accesses
system.icache.demand_accesses::total          1319746                       # number of demand (read+write) accesses
system.icache.overall_accesses::.cpu.inst      1319746                       # number of overall (read+write) accesses
system.icache.overall_accesses::total         1319746                       # number of overall (read+write) accesses
system.icache.demand_miss_rate::.cpu.inst     0.015799                       # miss rate for demand accesses
system.icache.demand_miss_rate::total        0.015799                       # miss rate for demand accesses
system.icache.overall_miss_rate::.cpu.inst     0.015799                       # miss rate for overall accesses
system.icache.overall_miss_rate::total       0.015799                       # miss rate for overall accesses
system.icache.demand_avg_miss_latency::.cpu.inst 22865.138363                       # average overall miss latency
system.icache.demand_avg_miss_latency::total 22865.138363                       # average overall miss latency
system.icache.overall_avg_miss_latency::.cpu.inst 22865.138363                       # average overall miss latency
system.icache.overall_avg_miss_latency::total 22865.138363                       # average overall miss latency
system.icache.blocked_cycles::no_mshrs              0                       # number of cycles access was blocked
system.icache.blocked_cycles::no_targets            0                       # number of cycles access was blocked
system.icache.blocked::no_mshrs                     0                       # number of cycles access was blocked
system.icache.blocked::no_targets                   0                       # number of cycles access was blocked
system.icache.avg_blocked_cycles::no_mshrs          nan                       # average number of cycles each access was blocked
system.icache.avg_blocked_cycles::no_targets          nan                       # average number of cycles each access was blocked
system.icache.demand_mshr_misses::.cpu.inst        20851                       # number of demand (read+write) MSHR misses
system.icache.demand_mshr_misses::total         20851                       # number of demand (read+write) MSHR misses
system.icache.overall_mshr_misses::.cpu.inst        20851                       # number of overall MSHR misses
system.icache.overall_mshr_misses::total        20851                       # number of overall MSHR misses
system.icache.demand_mshr_miss_latency::.cpu.inst    435059000                       # number of demand (read+write) MSHR miss cycles
system.icache.demand_mshr_miss_latency::total    435059000                       # number of demand (read+write) MSHR miss cycles
system.icache.overall_mshr_miss_latency::.cpu.inst    435059000                       # number of overall MSHR miss cycles
system.icache.overall_mshr_miss_latency::total    435059000                       # number of overall MSHR miss cycles
system.icache.demand_mshr_miss_rate::.cpu.inst     0.015799                       # mshr miss rate for demand accesses
system.icache.demand_mshr_miss_rate::total     0.015799                       # mshr miss rate for demand accesses
system.icache.overall_mshr_miss_rate::.cpu.inst     0.015799                       # mshr miss rate for overall accesses
system.icache.overall_mshr_miss_rate::total     0.015799                       # mshr miss rate for overall accesses
system.icache.demand_avg_mshr_miss_latency::.cpu.inst 20865.138363                       # average overall mshr miss latency
system.icache.demand_avg_mshr_miss_latency::total 20865.138363                       # average overall mshr miss latency
system.icache.overall_avg_mshr_miss_latency::.cpu.inst 20865.138363                       # average overall mshr miss latency
system.icache.overall_avg_mshr_miss_latency::total 20865.138363                       # average overall mshr miss latency
system.icache.replacements                      20595                       # number of replacements
system.icache.ReadReq_hits::.cpu.inst         1298895                       # number of ReadReq hits
system.icache.ReadReq_hits::total             1298895                       # number of ReadReq hits
system.icache.ReadReq_misses::.cpu.inst         20851                       # number of ReadReq misses
system.icache.ReadReq_misses::total             20851                       # number of ReadReq misses
system.icache.ReadReq_miss_latency::.cpu.inst    476761000                       # number of ReadReq miss cycles
system.icache.ReadReq_miss_latency::total    476761000                       # number of ReadReq miss cycles
system.icache.ReadReq_accesses::.cpu.inst      1319746                       # number of ReadReq accesses(hits+misses)
system.icache.ReadReq_accesses::total         1319746                       # number of ReadReq accesses(hits+misses)
system.icache.ReadReq_miss_rate::.cpu.inst     0.015799                       # miss rate for ReadReq accesses
system.icache.ReadReq_miss_rate::total       0.015799                       # miss rate for ReadReq accesses
system.icache.ReadReq_avg_miss_latency::.cpu.inst 22865.138363                       # average ReadReq miss latency
system.icache.ReadReq_avg_miss_latency::total 22865.138363                       # average ReadReq miss latency
system.icache.ReadReq_mshr_misses::.cpu.inst        20851                       # number of ReadReq MSHR misses
system.icache.ReadReq_mshr_misses::total        20851                       # number of ReadReq MSHR misses
system.icache.ReadReq_mshr_miss_latency::.cpu.inst    435059000                       # number of ReadReq MSHR miss cycles
system.icache.ReadReq_mshr_miss_latency::total    435059000                       # number of ReadReq MSHR miss cycles
system.icache.ReadReq_mshr_miss_rate::.cpu.inst     0.015799                       # mshr miss rate for ReadReq accesses
system.icache.ReadReq_mshr_miss_rate::total     0.015799                       # mshr miss rate for ReadReq accesses
system.icache.ReadReq_avg_mshr_miss_latency::.cpu.inst 20865.138363                       # average ReadReq mshr miss latency
system.icache.ReadReq_avg_mshr_miss_latency::total 20865.138363                       # average ReadReq mshr miss latency
system.icache.power_state.pwrStateResidencyTicks::UNDEFINED   4039613000                       # Cumulative time (in ticks) in various power states
system.icache.tags.tagsinuse               251.905225                       # Cycle average of tags in use
system.icache.tags.total_refs                 1130171                       # Total number of references to valid blocks.
system.icache.tags.sampled_refs                 20595                       # Sample count of references to valid blocks.
system.icache.tags.avg_refs                 54.875989                       # Average number of references to valid blocks.
system.icache.tags.warmup_cycle                 82000                       # Cycle when the warmup percentage was hit.
system.icache.tags.occ_blocks::.cpu.inst   251.905225                       # Average occupied blocks per requestor
system.icache.tags.occ_percent::.cpu.inst     0.984005                       # Average percentage of cache occupancy
system.icache.tags.occ_percent::total        0.984005                       # Average percentage of cache occupancy
system.icache.tags.occ_task_id_blocks::1024          256                       # Occupied blocks per task id
system.icache.tags.age_task_id_blocks_1024::0           44                       # Occupied blocks per task id
system.icache.tags.age_task_id_blocks_1024::1           26                       # Occupied blocks per task id
system.icache.tags.age_task_id_blocks_1024::2           43                       # Occupied blocks per task id
system.icache.tags.age_task_id_blocks_1024::3          143                       # Occupied blocks per task id
system.icache.tags.occ_task_id_percent::1024            1                       # Percentage of cache occupancy per task id
system.icache.tags.tag_accesses               1340597                       # Number of tag accesses
system.icache.tags.data_accesses              1340597                       # Number of data accesses
system.icache.tags.power_state.pwrStateResidencyTicks::UNDEFINED   4039613000                       # Cumulative time (in ticks) in various power states
system.membus.trans_dist::ReadReq                4015                       # Transaction distribution
system.membus.trans_dist::ReadResp               4015                       # Transaction distribution
system.membus.pkt_count_system.cache_small.mem_side::system.mem_ctrl.port         8030                       # Packet count per connected master and slave (bytes)
system.membus.pkt_count_system.cache_small.mem_side::total         8030                       # Packet count per connected master and slave (bytes)
system.membus.pkt_count::total                   8030                       # Packet count per connected master and slave (bytes)
system.membus.pkt_size_system.cache_small.mem_side::system.mem_ctrl.port       256960                       # Cumulative packet size per connected master and slave (bytes)
system.membus.pkt_size_system.cache_small.mem_side::total       256960                       # Cumulative packet size per connected master and slave (bytes)
system.membus.pkt_size::total                  256960                       # Cumulative packet size per connected master and slave (bytes)
system.membus.reqLayer2.occupancy             4015000                       # Layer occupancy (ticks)
system.membus.reqLayer2.utilization               0.1                       # Layer utilization (%)
system.membus.respLayer1.occupancy           21480500                       # Layer occupancy (ticks)
system.membus.respLayer1.utilization              0.5                       # Layer utilization (%)
system.membus.power_state.pwrStateResidencyTicks::UNDEFINED   4039613000                       # Cumulative time (in ticks) in various power states
system.mem_ctrl.bytes_read::.cpu.inst          115008                       # Number of bytes read from this memory
system.mem_ctrl.bytes_read::.cpu.data          141952                       # Number of bytes read from this memory
system.mem_ctrl.bytes_read::total              256960                       # Number of bytes read from this memory
system.mem_ctrl.bytes_inst_read::.cpu.inst       115008                       # Number of instructions bytes read from this memory
system.mem_ctrl.bytes_inst_read::total         115008                       # Number of instructions bytes read from this memory
system.mem_ctrl.num_reads::.cpu.inst             1797                       # Number of read requests responded to by this memory
system.mem_ctrl.num_reads::.cpu.data             2218                       # Number of read requests responded to by this memory
system.mem_ctrl.num_reads::total                 4015                       # Number of read requests responded to by this memory
system.mem_ctrl.bw_read::.cpu.inst           28470054                       # Total read bandwidth from this memory (bytes/s)
system.mem_ctrl.bw_read::.cpu.data           35140000                       # Total read bandwidth from this memory (bytes/s)
system.mem_ctrl.bw_read::total               63610054                       # Total read bandwidth from this memory (bytes/s)
system.mem_ctrl.bw_inst_read::.cpu.inst      28470054                       # Instruction read bandwidth from this memory (bytes/s)
system.mem_ctrl.bw_inst_read::total          28470054                       # Instruction read bandwidth from this memory (bytes/s)
system.mem_ctrl.bw_total::.cpu.inst          28470054                       # Total bandwidth to/from this memory (bytes/s)
system.mem_ctrl.bw_total::.cpu.data          35140000                       # Total bandwidth to/from this memory (bytes/s)
system.mem_ctrl.bw_total::total              63610054                       # Total bandwidth to/from this memory (bytes/s)
system.mem_ctrl.avgPriority_.cpu.inst::samples      1797.00                       # Average QoS priority value for accepted requests
system.mem_ctrl.avgPriority_.cpu.data::samples      2218.00                       # Average QoS priority value for accepted requests
system.mem_ctrl.priorityMinLatency       0.000000018750                       # per QoS priority minimum request to response latency (s)
system.mem_ctrl.priorityMaxLatency       0.000000574500                       # per QoS priority maximum request to response latency (s)
system.mem_ctrl.numReadWriteTurnArounds             0                       # Number of turnarounds from READ to WRITE
system.mem_ctrl.numWriteReadTurnArounds             0                       # Number of turnarounds from WRITE to READ
system.mem_ctrl.numStayReadState                 9065                       # Number of times bus staying in READ state
system.mem_ctrl.numStayWriteState                   0                       # Number of times bus staying in WRITE state
system.mem_ctrl.readReqs                         4015                       # Number of read requests accepted
system.mem_ctrl.writeReqs                           0                       # Number of write requests accepted
system.mem_ctrl.readBursts                       4015                       # Number of DRAM read bursts, including those serviced by the write queue
system.mem_ctrl.writeBursts                         0                       # Number of DRAM write bursts, including those merged in the write queue
system.mem_ctrl.servicedByWrQ                       0                       # Number of DRAM read bursts serviced by the write queue
system.mem_ctrl.mergedWrBursts                      0                       # Number of DRAM write bursts merged with an existing one
system.mem_ctrl.neitherReadNorWriteReqs             0                       # Number of requests that are neither read nor write
system.mem_ctrl.perBankRdBursts::0                377                       # Per bank write bursts
system.mem_ctrl.perBankRdBursts::1                465                       # Per bank write bursts
system.mem_ctrl.perBankRdBursts::2                331                       # Per bank write bursts
system.mem_ctrl.perBankRdBursts::3                 82                       # Per bank write bursts
system.mem_ctrl.perBankRdBursts::4                189                       # Per bank write bursts
system.mem_ctrl.perBankRdBursts::5                300                       # Per bank write bursts
system.mem_ctrl.perBankRdBursts::6                129                       # Per bank write bursts
system.mem_ctrl.perBankRdBursts::7                343                       # Per bank write bursts
system.mem_ctrl.perBankRdBursts::8                141                       # Per bank write bursts
system.mem_ctrl.perBankRdBursts::9                202                       # Per bank write bursts
system.mem_ctrl.perBankRdBursts::10               117                       # Per bank write bursts
system.mem_ctrl.perBankRdBursts::11               290                       # Per bank write bursts
system.mem_ctrl.perBankRdBursts::12               260                       # Per bank write bursts
system.mem_ctrl.perBankRdBursts::13               280                       # Per bank write bursts
system.mem_ctrl.perBankRdBursts::14               244                       # Per bank write bursts
system.mem_ctrl.perBankRdBursts::15               265                       # Per bank write bursts
system.mem_ctrl.perBankWrBursts::0                  0                       # Per bank write bursts
system.mem_ctrl.perBankWrBursts::1                  0                       # Per bank write bursts
system.mem_ctrl.perBankWrBursts::2                  0                       # Per bank write bursts
system.mem_ctrl.perBankWrBursts::3                  0                       # Per bank write bursts
system.mem_ctrl.perBankWrBursts::4                  0                       # Per bank write bursts
system.mem_ctrl.perBankWrBursts::5                  0                       # Per bank write bursts
system.mem_ctrl.perBankWrBursts::6                  0                       # Per bank write bursts
system.mem_ctrl.perBankWrBursts::7                  0                       # Per bank write bursts
system.mem_ctrl.perBankWrBursts::8                  0                       # Per bank write bursts
system.mem_ctrl.perBankWrBursts::9                  0                       # Per bank write bursts
system.mem_ctrl.perBankWrBursts::10                 0                       # Per bank write bursts
system.mem_ctrl.perBankWrBursts::11                 0                       # Per bank write bursts
system.mem_ctrl.perBankWrBursts::12                 0                       # Per bank write bursts
system.mem_ctrl.perBankWrBursts::13                 0                       # Per bank write bursts
system.mem_ctrl.perBankWrBursts::14                 0                       # Per bank write bursts
system.mem_ctrl.perBankWrBursts::15                 0                       # Per bank write bursts
system.mem_ctrl.avgRdQLen                        1.00                       # Average read queue length when enqueuing
system.mem_ctrl.avgWrQLen                        0.00                       # Average write queue length when enqueuing
system.mem_ctrl.totQLat                      37914000                       # Total ticks spent queuing
system.mem_ctrl.totBusLat                    20075000                       # Total ticks spent in databus transfers
system.mem_ctrl.totMemAccLat                113195250                       # Total ticks spent from burst creation until serviced by the DRAM
system.mem_ctrl.avgQLat                       9443.09                       # Average queueing delay per DRAM burst
system.mem_ctrl.avgBusLat                     5000.00                       # Average bus latency per DRAM burst
system.mem_ctrl.avgMemAccLat                 28193.09                       # Average memory access latency per DRAM burst
system.mem_ctrl.numRdRetry                          0                       # Number of times read queue was full causing retry
system.mem_ctrl.numWrRetry                          0                       # Number of times write queue was full causing retry
system.mem_ctrl.readRowHits                      2598                       # Number of row buffer hits during reads
system.mem_ctrl.writeRowHits                        0                       # Number of row buffer hits during writes
system.mem_ctrl.readRowHitRate                  64.71                       # Row buffer hit rate for reads
system.mem_ctrl.writeRowHitRate                   nan                       # Row buffer hit rate for writes
system.mem_ctrl.readPktSize::0                      0                       # Read request sizes (log2)
system.mem_ctrl.readPktSize::1                      0                       # Read request sizes (log2)
system.mem_ctrl.readPktSize::2                      0                       # Read request sizes (log2)
system.mem_ctrl.readPktSize::3                      0                       # Read request sizes (log2)
system.mem_ctrl.readPktSize::4                      0                       # Read request sizes (log2)
system.mem_ctrl.readPktSize::5                      0                       # Read request sizes (log2)
system.mem_ctrl.readPktSize::6                   4015                       # Read request sizes (log2)
system.mem_ctrl.writePktSize::0                     0                       # Write request sizes (log2)
system.mem_ctrl.writePktSize::1                     0                       # Write request sizes (log2)
system.mem_ctrl.writePktSize::2                     0                       # Write request sizes (log2)
system.mem_ctrl.writePktSize::3                     0                       # Write request sizes (log2)
system.mem_ctrl.writePktSize::4                     0                       # Write request sizes (log2)
system.mem_ctrl.writePktSize::5                     0                       # Write request sizes (log2)
system.mem_ctrl.writePktSize::6                     0                       # Write request sizes (log2)
system.mem_ctrl.rdQLenPdf::0                     4013                       # What read queue length does an incoming req see
system.mem_ctrl.rdQLenPdf::1                        2                       # What read queue length does an incoming req see
system.mem_ctrl.rdQLenPdf::2                        0                       # What read queue length does an incoming req see
system.mem_ctrl.rdQLenPdf::3                        0                       # What read queue length does an incoming req see
system.mem_ctrl.rdQLenPdf::4                        0                       # What read queue length does an incoming req see
system.mem_ctrl.rdQLenPdf::5                        0                       # What read queue length does an incoming req see
system.mem_ctrl.rdQLenPdf::6                        0                       # What read queue length does an incoming req see
system.mem_ctrl.rdQLenPdf::7                        0                       # What read queue length does an incoming req see
system.mem_ctrl.rdQLenPdf::8                        0                       # What read queue length does an incoming req see
system.mem_ctrl.rdQLenPdf::9                        0                       # What read queue length does an incoming req see
system.mem_ctrl.rdQLenPdf::10                       0                       # What read queue length does an incoming req see
system.mem_ctrl.rdQLenPdf::11                       0                       # What read queue length does an incoming req see
system.mem_ctrl.rdQLenPdf::12                       0                       # What read queue length does an incoming req see
system.mem_ctrl.rdQLenPdf::13                       0                       # What read queue length does an incoming req see
system.mem_ctrl.rdQLenPdf::14                       0                       # What read queue length does an incoming req see
system.mem_ctrl.rdQLenPdf::15                       0                       # What read queue length does an incoming req see
system.mem_ctrl.rdQLenPdf::16                       0                       # What read queue length does an incoming req see
system.mem_ctrl.rdQLenPdf::17                       0                       # What read queue length does an incoming req see
system.mem_ctrl.rdQLenPdf::18                       0                       # What read queue length does an incoming req see
system.mem_ctrl.rdQLenPdf::19                       0                       # What read queue length does an incoming req see
system.mem_ctrl.rdQLenPdf::20                       0                       # What read queue length does an incoming req see
system.mem_ctrl.rdQLenPdf::21                       0                       # What read queue length does an incoming req see
system.mem_ctrl.rdQLenPdf::22                       0                       # What read queue length does an incoming req see
system.mem_ctrl.rdQLenPdf::23                       0                       # What read queue length does an incoming req see
system.mem_ctrl.rdQLenPdf::24                       0                       # What read queue length does an incoming req see
system.mem_ctrl.rdQLenPdf::25                       0                       # What read queue length does an incoming req see
system.mem_ctrl.rdQLenPdf::26                       0                       # What read queue length does an incoming req see
system.mem_ctrl.rdQLenPdf::27                       0                       # What read queue length does an incoming req see
system.mem_ctrl.rdQLenPdf::28                       0                       # What read queue length does an incoming req see
system.mem_ctrl.rdQLenPdf::29                       0                       # What read queue length does an incoming req see
system.mem_ctrl.rdQLenPdf::30                       0                       # What read queue length does an incoming req see
system.mem_ctrl.rdQLenPdf::31                       0                       # What read queue length does an incoming req see
system.mem_ctrl.wrQLenPdf::0                        0                       # What write queue length does an incoming req see
system.mem_ctrl.wrQLenPdf::1                        0                       # What write queue length does an incoming req see
system.mem_ctrl.wrQLenPdf::2                        0                       # What write queue length does an incoming req see
system.mem_ctrl.wrQLenPdf::3                        0                       # What write queue length does an incoming req see
system.mem_ctrl.wrQLenPdf::4                        0                       # What write queue length does an incoming req see
system.mem_ctrl.wrQLenPdf::5                        0                       # What write queue length does an incoming req see
system.mem_ctrl.wrQLenPdf::6                        0                       # What write queue length does an incoming req see
system.mem_ctrl.wrQLenPdf::7                        0                       # What write queue length does an incoming req see
system.mem_ctrl.wrQLenPdf::8                        0                       # What write queue length does an incoming req see
system.mem_ctrl.wrQLenPdf::9                        0                       # What write queue length does an incoming req see
system.mem_ctrl.wrQLenPdf::10                       0                       # What write queue length does an incoming req see
system.mem_ctrl.wrQLenPdf::11                       0                       # What write queue length does an incoming req see
system.mem_ctrl.wrQLenPdf::12                       0                       # What write queue length does an incoming req see
system.mem_ctrl.wrQLenPdf::13                       0                       # What write queue length does an incoming req see
system.mem_ctrl.wrQLenPdf::14                       0                       # What write queue length does an incoming req see
system.mem_ctrl.wrQLenPdf::15                       0                       # What write queue length does an incoming req see
system.mem_ctrl.wrQLenPdf::16                       0                       # What write queue length does an incoming req see
system.mem_ctrl.wrQLenPdf::17                       0                       # What write queue length does an incoming req see
system.mem_ctrl.wrQLenPdf::18                       0                       # What write queue length does an incoming req see
system.mem_ctrl.wrQLenPdf::19                       0                       # What write queue length does an incoming req see
system.mem_ctrl.wrQLenPdf::20                       0                       # What write queue length does an incoming req see
system.mem_ctrl.wrQLenPdf::21                       0                       # What write queue length does an incoming req see
system.mem_ctrl.wrQLenPdf::22                       0                       # What write queue length does an incoming req see
system.mem_ctrl.wrQLenPdf::23                       0                       # What write queue length does an incoming req see
system.mem_ctrl.wrQLenPdf::24                       0                       # What write queue length does an incoming req see
system.mem_ctrl.wrQLenPdf::25                       0                       # What write queue length does an incoming req see
system.mem_ctrl.wrQLenPdf::26                       0                       # What write queue length does an incoming req see
system.mem_ctrl.wrQLenPdf::27                       0                       # What write queue length does an incoming req see
system.mem_ctrl.wrQLenPdf::28                       0                       # What write queue length does an incoming req see
system.mem_ctrl.wrQLenPdf::29                       0                       # What write queue length does an incoming req see
system.mem_ctrl.wrQLenPdf::30                       0                       # What write queue length does an incoming req see
system.mem_ctrl.wrQLenPdf::31                       0                       # What write queue length does an incoming req see
system.mem_ctrl.wrQLenPdf::32                       0                       # What write queue length does an incoming req see
system.mem_ctrl.wrQLenPdf::33                       0                       # What write queue length does an incoming req see
system.mem_ctrl.wrQLenPdf::34                       0                       # What write queue length does an incoming req see
system.mem_ctrl.wrQLenPdf::35                       0                       # What write queue length does an incoming req see
system.mem_ctrl.wrQLenPdf::36                       0                       # What write queue length does an incoming req see
system.mem_ctrl.wrQLenPdf::37                       0                       # What write queue length does an incoming req see
system.mem_ctrl.wrQLenPdf::38                       0                       # What write queue length does an incoming req see
system.mem_ctrl.wrQLenPdf::39                       0                       # What write queue length does an incoming req see
system.mem_ctrl.wrQLenPdf::40                       0                       # What write queue length does an incoming req see
system.mem_ctrl.wrQLenPdf::41                       0                       # What write queue length does an incoming req see
system.mem_ctrl.wrQLenPdf::42                       0                       # What write queue length does an incoming req see
system.mem_ctrl.wrQLenPdf::43                       0                       # What write queue length does an incoming req see
system.mem_ctrl.wrQLenPdf::44                       0                       # What write queue length does an incoming req see
system.mem_ctrl.wrQLenPdf::45                       0                       # What write queue length does an incoming req see
system.mem_ctrl.wrQLenPdf::46                       0                       # What write queue length does an incoming req see
system.mem_ctrl.wrQLenPdf::47                       0                       # What write queue length does an incoming req see
system.mem_ctrl.wrQLenPdf::48                       0                       # What write queue length does an incoming req see
system.mem_ctrl.wrQLenPdf::49                       0                       # What write queue length does an incoming req see
system.mem_ctrl.wrQLenPdf::50                       0                       # What write queue length does an incoming req see
system.mem_ctrl.wrQLenPdf::51                       0                       # What write queue length does an incoming req see
system.mem_ctrl.wrQLenPdf::52                       0                       # What write queue length does an incoming req see
system.mem_ctrl.wrQLenPdf::53                       0                       # What write queue length does an incoming req see
system.mem_ctrl.wrQLenPdf::54                       0                       # What write queue length does an incoming req see
system.mem_ctrl.wrQLenPdf::55                       0                       # What write queue length does an incoming req see
system.mem_ctrl.wrQLenPdf::56                       0                       # What write queue length does an incoming req see
system.mem_ctrl.wrQLenPdf::57                       0                       # What write queue length does an incoming req see
system.mem_ctrl.wrQLenPdf::58                       0                       # What write queue length does an incoming req see
system.mem_ctrl.wrQLenPdf::59                       0                       # What write queue length does an incoming req see
system.mem_ctrl.wrQLenPdf::60                       0                       # What write queue length does an incoming req see
system.mem_ctrl.wrQLenPdf::61                       0                       # What write queue length does an incoming req see
system.mem_ctrl.wrQLenPdf::62                       0                       # What write queue length does an incoming req see
system.mem_ctrl.wrQLenPdf::63                       0                       # What write queue length does an incoming req see
system.mem_ctrl.bytesPerActivate::samples         1415                       # Bytes accessed per row activation
system.mem_ctrl.bytesPerActivate::mean     181.325795                       # Bytes accessed per row activation
system.mem_ctrl.bytesPerActivate::gmean    132.825553                       # Bytes accessed per row activation
system.mem_ctrl.bytesPerActivate::stdev    178.348341                       # Bytes accessed per row activation
system.mem_ctrl.bytesPerActivate::0-127           565     39.93%     39.93% # Bytes accessed per row activation
system.mem_ctrl.bytesPerActivate::128-255          521     36.82%     76.75% # Bytes accessed per row activation
system.mem_ctrl.bytesPerActivate::256-383          186     13.14%     89.89% # Bytes accessed per row activation
system.mem_ctrl.bytesPerActivate::384-511           52      3.67%     93.57% # Bytes accessed per row activation
system.mem_ctrl.bytesPerActivate::512-639           28      1.98%     95.55% # Bytes accessed per row activation
system.mem_ctrl.bytesPerActivate::640-767           22      1.55%     97.10% # Bytes accessed per row activation
system.mem_ctrl.bytesPerActivate::768-895           16      1.13%     98.23% # Bytes accessed per row activation
system.mem_ctrl.bytesPerActivate::896-1023            6      0.42%     98.66% # Bytes accessed per row activation
system.mem_ctrl.bytesPerActivate::1024-1151           19      1.34%    100.00% # Bytes accessed per row activation
system.mem_ctrl.bytesPerActivate::total          1415                       # Bytes accessed per row activation
system.mem_ctrl.bytesReadDRAM                  256960                       # Total number of bytes read from DRAM
system.mem_ctrl.bytesReadWrQ                        0                       # Total number of bytes read from write queue
system.mem_ctrl.bytesWritten                        0                       # Total number of bytes written to DRAM
system.mem_ctrl.bytesReadSys                   256960                       # Total read bytes from the system interface side
system.mem_ctrl.bytesWrittenSys                     0                       # Total written bytes from the system interface side
system.mem_ctrl.avgRdBW                         63.61                       # Average DRAM read bandwidth in MiByte/s
system.mem_ctrl.avgWrBW                          0.00                       # Average achieved write bandwidth in MiByte/s
system.mem_ctrl.avgRdBWSys                      63.61                       # Average system read bandwidth in MiByte/s
system.mem_ctrl.avgWrBWSys                       0.00                       # Average system write bandwidth in MiByte/s
system.mem_ctrl.peakBW                       12800.00                       # Theoretical peak bandwidth in MiByte/s
system.mem_ctrl.busUtil                          0.50                       # Data bus utilization in percentage
system.mem_ctrl.busUtilRead                      0.50                       # Data bus utilization in percentage for reads
system.mem_ctrl.busUtilWrite                     0.00                       # Data bus utilization in percentage for writes
system.mem_ctrl.totGap                     4038704000                       # Total gap between requests
system.mem_ctrl.avgGap                     1005903.86                       # Average gap between requests
system.mem_ctrl.masterReadBytes::.cpu.inst       115008                       # Per-master bytes read from memory
system.mem_ctrl.masterReadBytes::.cpu.data       141952                       # Per-master bytes read from memory
system.mem_ctrl.masterReadRate::.cpu.inst 28470053.938335180283                       # Per-master bytes read from memory rate (Bytes/sec)
system.mem_ctrl.masterReadRate::.cpu.data 35139999.797010257840                       # Per-master bytes read from memory rate (Bytes/sec)
system.mem_ctrl.masterReadAccesses::.cpu.inst         1797                       # Per-master read serviced memory accesses
system.mem_ctrl.masterReadAccesses::.cpu.data         2218                       # Per-master read serviced memory accesses
system.mem_ctrl.masterReadTotalLat::.cpu.inst     48583250                       # Per-master read total memory access latency
system.mem_ctrl.masterReadTotalLat::.cpu.data     64612000                       # Per-master read total memory access latency
system.mem_ctrl.masterReadAvgLat::.cpu.inst     27035.75                       # Per-master read average memory access latency
system.mem_ctrl.masterReadAvgLat::.cpu.data     29130.75                       # Per-master read average memory access latency
system.mem_ctrl.pageHitRate                     64.71                       # Row buffer hit rate, read and write combined
system.mem_ctrl.rank1.actEnergy               4533900                       # Energy for activate commands per rank (pJ)
system.mem_ctrl.rank1.preEnergy               2409825                       # Energy for precharge commands per rank (pJ)
system.mem_ctrl.rank1.readEnergy             12844860                       # Energy for read commands per rank (pJ)
system.mem_ctrl.rank1.writeEnergy                   0                       # Energy for write commands per rank (pJ)
system.mem_ctrl.rank1.refreshEnergy      318383520.000000                       # Energy for refresh commands per rank (pJ)
system.mem_ctrl.rank1.actBackEnergy         841630080                       # Energy for active background per rank (pJ)
system.mem_ctrl.rank1.preBackEnergy         842470560                       # Energy for precharge background per rank (pJ)
system.mem_ctrl.rank1.actPowerDownEnergy            0                       # Energy for active power-down per rank (pJ)
system.mem_ctrl.rank1.prePowerDownEnergy            0                       # Energy for precharge power-down per rank (pJ)
system.mem_ctrl.rank1.selfRefreshEnergy             0                       # Energy for self refresh per rank (pJ)
system.mem_ctrl.rank1.totalEnergy          2022272745                       # Total energy per rank (pJ)
system.mem_ctrl.rank1.averagePower         500.610515                       # Core power per rank (mW)
system.mem_ctrl.rank1.totalIdleTime                 0                       # Total Idle time Per DRAM Rank
system.mem_ctrl.rank1.memoryStateTime::IDLE   2182066500                       # Time in different power states
system.mem_ctrl.rank1.memoryStateTime::REF    134680000                       # Time in different power states
system.mem_ctrl.rank1.memoryStateTime::SREF            0                       # Time in different power states
system.mem_ctrl.rank1.memoryStateTime::PRE_PDN            0                       # Time in different power states
system.mem_ctrl.rank1.memoryStateTime::ACT   1722866500                       # Time in different power states
system.mem_ctrl.rank1.memoryStateTime::ACT_PDN            0                       # Time in different power states
system.mem_ctrl.rank0.actEnergy               5583480                       # Energy for activate commands per rank (pJ)
system.mem_ctrl.rank0.preEnergy               2960100                       # Energy for precharge commands per rank (pJ)
system.mem_ctrl.rank0.readEnergy             15822240                       # Energy for read commands per rank (pJ)
system.mem_ctrl.rank0.writeEnergy                   0                       # Energy for write commands per rank (pJ)
system.mem_ctrl.rank0.refreshEnergy      318383520.000000                       # Energy for refresh commands per rank (pJ)
system.mem_ctrl.rank0.actBackEnergy         880692180                       # Energy for active background per rank (pJ)
system.mem_ctrl.rank0.preBackEnergy         809576160                       # Energy for precharge background per rank (pJ)
system.mem_ctrl.rank0.actPowerDownEnergy            0                       # Energy for active power-down per rank (pJ)
system.mem_ctrl.rank0.prePowerDownEnergy            0                       # Energy for precharge power-down per rank (pJ)
system.mem_ctrl.rank0.selfRefreshEnergy             0                       # Energy for self refresh per rank (pJ)
system.mem_ctrl.rank0.totalEnergy          2033017680                       # Total energy per rank (pJ)
system.mem_ctrl.rank0.averagePower         503.270407                       # Core power per rank (mW)
system.mem_ctrl.rank0.totalIdleTime                 0                       # Total Idle time Per DRAM Rank
system.mem_ctrl.rank0.memoryStateTime::IDLE   2095965500                       # Time in different power states
system.mem_ctrl.rank0.memoryStateTime::REF    134680000                       # Time in different power states
system.mem_ctrl.rank0.memoryStateTime::SREF            0                       # Time in different power states
system.mem_ctrl.rank0.memoryStateTime::PRE_PDN            0                       # Time in different power states
system.mem_ctrl.rank0.memoryStateTime::ACT   1808967500                       # Time in different power states
system.mem_ctrl.rank0.memoryStateTime::ACT_PDN            0                       # Time in different power states
system.mem_ctrl.power_state.pwrStateResidencyTicks::UNDEFINED   4039613000                       # Cumulative time (in ticks) in various power states
system.cache_medium.blocked_cycles::no_mshrs            0                       # number of cycles access was blocked
system.cache_medium.blocked_cycles::no_targets            0                       # number of cycles access was blocked
system.cache_medium.blocked::no_mshrs               0                       # number of cycles access was blocked
system.cache_medium.blocked::no_targets             0                       # number of cycles access was blocked
system.cache_medium.avg_blocked_cycles::no_mshrs          nan                       # average number of cycles each access was blocked
system.cache_medium.avg_blocked_cycles::no_targets          nan                       # average number of cycles each access was blocked
system.cache_medium.replacements                    0                       # number of replacements
system.cache_medium.power_state.pwrStateResidencyTicks::UNDEFINED   4039613000                       # Cumulative time (in ticks) in various power states
system.cache_medium.tags.tagsinuse                  0                       # Cycle average of tags in use
system.cache_medium.tags.total_refs                 0                       # Total number of references to valid blocks.
system.cache_medium.tags.sampled_refs               0                       # Sample count of references to valid blocks.
system.cache_medium.tags.avg_refs                 nan                       # Average number of references to valid blocks.
system.cache_medium.tags.warmup_cycle               0                       # Cycle when the warmup percentage was hit.
system.cache_medium.tags.tag_accesses               0                       # Number of tag accesses
system.cache_medium.tags.data_accesses              0                       # Number of data accesses
system.cache_medium.tags.power_state.pwrStateResidencyTicks::UNDEFINED   4039613000                       # Cumulative time (in ticks) in various power states
system.clk_domain.clock                          1000                       # Clock period in ticks
system.clk_domain.voltage_domain.voltage            1                       # Voltage in Volts
system.dcache.demand_hits::.cpu.data           334021                       # number of demand (read+write) hits
system.dcache.demand_hits::total               334021                       # number of demand (read+write) hits
system.dcache.overall_hits::.cpu.data          334021                       # number of overall hits
system.dcache.overall_hits::total              334021                       # number of overall hits
system.dcache.demand_misses::.cpu.data           7009                       # number of demand (read+write) misses
system.dcache.demand_misses::total               7009                       # number of demand (read+write) misses
system.dcache.overall_misses::.cpu.data          7009                       # number of overall misses
system.dcache.overall_misses::total              7009                       # number of overall misses
system.dcache.demand_miss_latency::.cpu.data    255246000                       # number of demand (read+write) miss cycles
system.dcache.demand_miss_latency::total    255246000                       # number of demand (read+write) miss cycles
system.dcache.overall_miss_latency::.cpu.data    255246000                       # number of overall miss cycles
system.dcache.overall_miss_latency::total    255246000                       # number of overall miss cycles
system.dcache.demand_accesses::.cpu.data       341030                       # number of demand (read+write) accesses
system.dcache.demand_accesses::total           341030                       # number of demand (read+write) accesses
system.dcache.overall_accesses::.cpu.data       341030                       # number of overall (read+write) accesses
system.dcache.overall_accesses::total          341030                       # number of overall (read+write) accesses
system.dcache.demand_miss_rate::.cpu.data     0.020552                       # miss rate for demand accesses
system.dcache.demand_miss_rate::total        0.020552                       # miss rate for demand accesses
system.dcache.overall_miss_rate::.cpu.data     0.020552                       # miss rate for overall accesses
system.dcache.overall_miss_rate::total       0.020552                       # miss rate for overall accesses
system.dcache.demand_avg_miss_latency::.cpu.data 36416.892567                       # average overall miss latency
system.dcache.demand_avg_miss_latency::total 36416.892567                       # average overall miss latency
system.dcache.overall_avg_miss_latency::.cpu.data 36416.892567                       # average overall miss latency
system.dcache.overall_avg_miss_latency::total 36416.892567                       # average overall miss latency
system.dcache.blocked_cycles::no_mshrs              0                       # number of cycles access was blocked
system.dcache.blocked_cycles::no_targets            0                       # number of cycles access was blocked
system.dcache.blocked::no_mshrs                     0                       # number of cycles access was blocked
system.dcache.blocked::no_targets                   0                       # number of cycles access was blocked
system.dcache.avg_blocked_cycles::no_mshrs          nan                       # average number of cycles each access was blocked
system.dcache.avg_blocked_cycles::no_targets          nan                       # average number of cycles each access was blocked
system.dcache.writebacks::.writebacks            3793                       # number of writebacks
system.dcache.writebacks::total                  3793                       # number of writebacks
system.dcache.demand_mshr_misses::.cpu.data         7009                       # number of demand (read+write) MSHR misses
system.dcache.demand_mshr_misses::total          7009                       # number of demand (read+write) MSHR misses
system.dcache.overall_mshr_misses::.cpu.data         7009                       # number of overall MSHR misses
system.dcache.overall_mshr_misses::total         7009                       # number of overall MSHR misses
system.dcache.demand_mshr_miss_latency::.cpu.data    241230000                       # number of demand (read+write) MSHR miss cycles
system.dcache.demand_mshr_miss_latency::total    241230000                       # number of demand (read+write) MSHR miss cycles
system.dcache.overall_mshr_miss_latency::.cpu.data    241230000                       # number of overall MSHR miss cycles
system.dcache.overall_mshr_miss_latency::total    241230000                       # number of overall MSHR miss cycles
system.dcache.demand_mshr_miss_rate::.cpu.data     0.020552                       # mshr miss rate for demand accesses
system.dcache.demand_mshr_miss_rate::total     0.020552                       # mshr miss rate for demand accesses
system.dcache.overall_mshr_miss_rate::.cpu.data     0.020552                       # mshr miss rate for overall accesses
system.dcache.overall_mshr_miss_rate::total     0.020552                       # mshr miss rate for overall accesses
system.dcache.demand_avg_mshr_miss_latency::.cpu.data 34417.177914                       # average overall mshr miss latency
system.dcache.demand_avg_mshr_miss_latency::total 34417.177914                       # average overall mshr miss latency
system.dcache.overall_avg_mshr_miss_latency::.cpu.data 34417.177914                       # average overall mshr miss latency
system.dcache.overall_avg_mshr_miss_latency::total 34417.177914                       # average overall mshr miss latency
system.dcache.replacements                       6752                       # number of replacements
system.dcache.ReadReq_hits::.cpu.data          197455                       # number of ReadReq hits
system.dcache.ReadReq_hits::total              197455                       # number of ReadReq hits
system.dcache.ReadReq_misses::.cpu.data          4278                       # number of ReadReq misses
system.dcache.ReadReq_misses::total              4278                       # number of ReadReq misses
system.dcache.ReadReq_miss_latency::.cpu.data    103084000                       # number of ReadReq miss cycles
system.dcache.ReadReq_miss_latency::total    103084000                       # number of ReadReq miss cycles
system.dcache.ReadReq_accesses::.cpu.data       201733                       # number of ReadReq accesses(hits+misses)
system.dcache.ReadReq_accesses::total          201733                       # number of ReadReq accesses(hits+misses)
system.dcache.ReadReq_miss_rate::.cpu.data     0.021206                       # miss rate for ReadReq accesses
system.dcache.ReadReq_miss_rate::total       0.021206                       # miss rate for ReadReq accesses
system.dcache.ReadReq_avg_miss_latency::.cpu.data 24096.306685                       # average ReadReq miss latency
system.dcache.ReadReq_avg_miss_latency::total 24096.306685                       # average ReadReq miss latency
system.dcache.ReadReq_mshr_misses::.cpu.data         4278                       # number of ReadReq MSHR misses
system.dcache.ReadReq_mshr_misses::total         4278                       # number of ReadReq MSHR misses
system.dcache.ReadReq_mshr_miss_latency::.cpu.data     94530000                       # number of ReadReq MSHR miss cycles
system.dcache.ReadReq_mshr_miss_latency::total     94530000                       # number of ReadReq MSHR miss cycles
system.dcache.ReadReq_mshr_miss_rate::.cpu.data     0.021206                       # mshr miss rate for ReadReq accesses
system.dcache.ReadReq_mshr_miss_rate::total     0.021206                       # mshr miss rate for ReadReq accesses
system.dcache.ReadReq_avg_mshr_miss_latency::.cpu.data 22096.774194                       # average ReadReq mshr miss latency
system.dcache.ReadReq_avg_mshr_miss_latency::total 22096.774194                       # average ReadReq mshr miss latency
system.dcache.WriteReq_hits::.cpu.data         136566                       # number of WriteReq hits
system.dcache.WriteReq_hits::total             136566                       # number of WriteReq hits
system.dcache.WriteReq_misses::.cpu.data         2731                       # number of WriteReq misses
system.dcache.WriteReq_misses::total             2731                       # number of WriteReq misses
system.dcache.WriteReq_miss_latency::.cpu.data    152162000                       # number of WriteReq miss cycles
[...]
system.dcache.tags.age_task_id_blocks_1024::0           26                       # Occupied blocks per task id
system.dcache.tags.age_task_id_blocks_1024::1          172                       # Occupied blocks per task id
system.dcache.tags.age_task_id_blocks_1024::2           58                       # Occupied blocks per task id
system.dcache.tags.occ_task_id_percent::1024            1                       # Percentage of cache occupancy per task id
system.dcache.tags.tag_accesses               2091621                       # Number of tag accesses
system.dcache.tags.data_accesses              2091621                       # Number of data accesses
system.dcache.tags.power_state.pwrStateResidencyTicks::UNDEFINED  24483787000                       # Cumulative time (in ticks) in various power states
system.cache_large.blocked_cycles::no_mshrs            0                       # number of cycles access was blocked
system.cache_large.blocked_cycles::no_targets            0                       # number of cycles access was blocked
system.cache_large.blocked::no_mshrs                0                       # number of cycles access was blocked
system.cache_large.blocked::no_targets              0                       # number of cycles access was blocked
system.cache_large.avg_blocked_cycles::no_mshrs          nan                       # average number of cycles each access was blocked
system.cache_large.avg_blocked_cycles::no_targets          nan                       # average number of cycles each access was blocked
system.cache_large.replacements                     0                       # number of replacements
system.cache_large.power_state.pwrStateResidencyTicks::UNDEFINED  24483787000                       # Cumulative time (in ticks) in various power states
system.cache_large.tags.tagsinuse                   0                       # Cycle average of tags in use
system.cache_large.tags.total_refs                  0                       # Total number of references to valid blocks.
system.cache_large.tags.sampled_refs                0                       # Sample count of references to valid blocks.
system.cache_large.tags.avg_refs                  nan                       # Average number of references to valid blocks.
system.cache_large.tags.warmup_cycle                0                       # Cycle when the warmup percentage was hit.
system.cache_large.tags.tag_accesses                0                       # Number of tag accesses
system.cache_large.tags.data_accesses               0                       # Number of data accesses
system.cache_large.tags.power_state.pwrStateResidencyTicks::UNDEFINED  24483787000                       # Cumulative time (in ticks) in various power states
system.l2cache.demand_hits::.cpu.inst           11650                       # number of demand (read+write) hits
system.l2cache.demand_hits::.cpu.data           13185                       # number of demand (read+write) hits
system.l2cache.demand_hits::total               24835                       # number of demand (read+write) hits
system.l2cache.overall_hits::.cpu.inst          11650                       # number of overall hits
system.l2cache.overall_hits::.cpu.data          13185                       # number of overall hits
system.l2cache.overall_hits::total              24835                       # number of overall hits
system.l2cache.demand_misses::.cpu.inst         26306                       # number of demand (read+write) misses
system.l2cache.demand_misses::.cpu.data         43414                       # number of demand (read+write) misses
system.l2cache.demand_misses::total             69720                       # number of demand (read+write) misses
system.l2cache.overall_misses::.cpu.inst        26306                       # number of overall misses
system.l2cache.overall_misses::.cpu.data        43414                       # number of overall misses
system.l2cache.overall_misses::total            69720                       # number of overall misses
system.l2cache.demand_miss_latency::.cpu.inst    486601000                       # number of demand (read+write) miss cycles
system.l2cache.demand_miss_latency::.cpu.data   1317318000                       # number of demand (read+write) miss cycles
system.l2cache.demand_miss_latency::total   1803919000                       # number of demand (read+write) miss cycles
system.l2cache.overall_miss_latency::.cpu.inst    486601000                       # number of overall miss cycles
system.l2cache.overall_miss_latency::.cpu.data   1317318000                       # number of overall miss cycles
system.l2cache.overall_miss_latency::total   1803919000                       # number of overall miss cycles
system.l2cache.demand_accesses::.cpu.inst        37956                       # number of demand (read+write) accesses
system.l2cache.demand_accesses::.cpu.data        56599                       # number of demand (read+write) accesses
system.l2cache.demand_accesses::total           94555                       # number of demand (read+write) accesses
system.l2cache.overall_accesses::.cpu.inst        37956                       # number of overall (read+write) accesses
system.l2cache.overall_accesses::.cpu.data        56599                       # number of overall (read+write) accesses
system.l2cache.overall_accesses::total          94555                       # number of overall (read+write) accesses
system.l2cache.demand_miss_rate::.cpu.inst     0.693066                       # miss rate for demand accesses
system.l2cache.demand_miss_rate::.cpu.data     0.767045                       # miss rate for demand accesses
system.l2cache.demand_miss_rate::total       0.737349                       # miss rate for demand accesses
system.l2cache.overall_miss_rate::.cpu.inst     0.693066                       # miss rate for overall accesses
system.l2cache.overall_miss_rate::.cpu.data     0.767045                       # miss rate for overall accesses
system.l2cache.overall_miss_rate::total      0.737349                       # miss rate for overall accesses
system.l2cache.demand_avg_miss_latency::.cpu.inst 18497.719152                       # average overall miss latency
system.l2cache.demand_avg_miss_latency::.cpu.data 30343.161192                       # average overall miss latency
system.l2cache.demand_avg_miss_latency::total 25873.766495                       # average overall miss latency
system.l2cache.overall_avg_miss_latency::.cpu.inst 18497.719152                       # average overall miss latency
system.l2cache.overall_avg_miss_latency::.cpu.data 30343.161192                       # average overall miss latency
system.l2cache.overall_avg_miss_latency::total 25873.766495                       # average overall miss latency
system.l2cache.blocked_cycles::no_mshrs             0                       # number of cycles access was blocked
system.l2cache.blocked_cycles::no_targets            0                       # number of cycles access was blocked
system.l2cache.blocked::no_mshrs                    0                       # number of cycles access was blocked
system.l2cache.blocked::no_targets                  0                       # number of cycles access was blocked
system.l2cache.avg_blocked_cycles::no_mshrs          nan                       # average number of cycles each access was blocked
system.l2cache.avg_blocked_cycles::no_targets          nan                       # average number of cycles each access was blocked
system.l2cache.writebacks::.writebacks          11882                       # number of writebacks
system.l2cache.writebacks::total                11882                       # number of writebacks
system.l2cache.demand_mshr_misses::.cpu.inst        26306                       # number of demand (read+write) MSHR misses
system.l2cache.demand_mshr_misses::.cpu.data        43414                       # number of demand (read+write) MSHR misses
system.l2cache.demand_mshr_misses::total        69720                       # number of demand (read+write) MSHR misses
system.l2cache.overall_mshr_misses::.cpu.inst        26306                       # number of overall MSHR misses
system.l2cache.overall_mshr_misses::.cpu.data        43414                       # number of overall MSHR misses
system.l2cache.overall_mshr_misses::total        69720                       # number of overall MSHR misses
system.l2cache.demand_mshr_miss_latency::.cpu.inst    433989000                       # number of demand (read+write) MSHR miss cycles
system.l2cache.demand_mshr_miss_latency::.cpu.data   1230490000                       # number of demand (read+write) MSHR miss cycles
system.l2cache.demand_mshr_miss_latency::total   1664479000                       # number of demand (read+write) MSHR miss cycles
system.l2cache.overall_mshr_miss_latency::.cpu.inst    433989000                       # number of overall MSHR miss cycles
system.l2cache.overall_mshr_miss_latency::.cpu.data   1230490000                       # number of overall MSHR miss cycles
system.l2cache.overall_mshr_miss_latency::total   1664479000                       # number of overall MSHR miss cycles
system.l2cache.demand_mshr_miss_rate::.cpu.inst     0.693066                       # mshr miss rate for demand accesses
system.l2cache.demand_mshr_miss_rate::.cpu.data     0.767045                       # mshr miss rate for demand accesses
system.l2cache.demand_mshr_miss_rate::total     0.737349                       # mshr miss rate for demand accesses
system.l2cache.overall_mshr_miss_rate::.cpu.inst     0.693066                       # mshr miss rate for overall accesses
system.l2cache.overall_mshr_miss_rate::.cpu.data     0.767045                       # mshr miss rate for overall accesses
system.l2cache.overall_mshr_miss_rate::total     0.737349                       # mshr miss rate for overall accesses
system.l2cache.demand_avg_mshr_miss_latency::.cpu.inst 16497.719152                       # average overall mshr miss latency
system.l2cache.demand_avg_mshr_miss_latency::.cpu.data 28343.161192                       # average overall mshr miss latency
system.l2cache.demand_avg_mshr_miss_latency::total 23873.766495                       # average overall mshr miss latency
system.l2cache.overall_avg_mshr_miss_latency::.cpu.inst 16497.719152                       # average overall mshr miss latency
system.l2cache.overall_avg_mshr_miss_latency::.cpu.data 28343.161192                       # average overall mshr miss latency
system.l2cache.overall_avg_mshr_miss_latency::total 23873.766495                       # average overall mshr miss latency
system.l2cache.replacements                     77976                       # number of replacements
system.l2cache.ReadReq_hits::.cpu.inst          11650                       # number of ReadReq hits
system.l2cache.ReadReq_hits::.cpu.data          13185                       # number of ReadReq hits
system.l2cache.ReadReq_hits::total              24835                       # number of ReadReq hits
system.l2cache.ReadReq_misses::.cpu.inst        26306                       # number of ReadReq misses
system.l2cache.ReadReq_misses::.cpu.data        43414                       # number of ReadReq misses
system.l2cache.ReadReq_misses::total            69720                       # number of ReadReq misses
system.l2cache.ReadReq_miss_latency::.cpu.inst    486601000                       # number of ReadReq miss cycles
system.l2cache.ReadReq_miss_latency::.cpu.data   1317318000                       # number of ReadReq miss cycles
system.l2cache.ReadReq_miss_latency::total   1803919000                       # number of ReadReq miss cycles
system.l2cache.ReadReq_accesses::.cpu.inst        37956                       # number of ReadReq accesses(hits+misses)
system.l2cache.ReadReq_accesses::.cpu.data        56599                       # number of ReadReq accesses(hits+misses)
system.l2cache.ReadReq_accesses::total          94555                       # number of ReadReq accesses(hits+misses)
system.l2cache.ReadReq_miss_rate::.cpu.inst     0.693066                       # miss rate for ReadReq accesses
system.l2cache.ReadReq_miss_rate::.cpu.data     0.767045                       # miss rate for ReadReq accesses
system.l2cache.ReadReq_miss_rate::total      0.737349                       # miss rate for ReadReq accesses
system.l2cache.ReadReq_avg_miss_latency::.cpu.inst 18497.719152                       # average ReadReq miss latency
system.l2cache.ReadReq_avg_miss_latency::.cpu.data 30343.161192                       # average ReadReq miss latency
system.l2cache.ReadReq_avg_miss_latency::total 25873.766495                       # average ReadReq miss latency
system.l2cache.ReadReq_mshr_misses::.cpu.inst        26306                       # number of ReadReq MSHR misses
system.l2cache.ReadReq_mshr_misses::.cpu.data        43414                       # number of ReadReq MSHR misses
system.l2cache.ReadReq_mshr_misses::total        69720                       # number of ReadReq MSHR misses
system.l2cache.ReadReq_mshr_miss_latency::.cpu.inst    433989000                       # number of ReadReq MSHR miss cycles
system.l2cache.ReadReq_mshr_miss_latency::.cpu.data   1230490000                       # number of ReadReq MSHR miss cycles
system.l2cache.ReadReq_mshr_miss_latency::total   1664479000                       # number of ReadReq MSHR miss cycles
system.l2cache.ReadReq_mshr_miss_rate::.cpu.inst     0.693066                       # mshr miss rate for ReadReq accesses
system.l2cache.ReadReq_mshr_miss_rate::.cpu.data     0.767045                       # mshr miss rate for ReadReq accesses
system.l2cache.ReadReq_mshr_miss_rate::total     0.737349                       # mshr miss rate for ReadReq accesses
system.l2cache.ReadReq_avg_mshr_miss_latency::.cpu.inst 16497.719152                       # average ReadReq mshr miss latency
system.l2cache.ReadReq_avg_mshr_miss_latency::.cpu.data 28343.161192                       # average ReadReq mshr miss latency
system.l2cache.ReadReq_avg_mshr_miss_latency::total 23873.766495                       # average ReadReq mshr miss latency
system.l2cache.WritebackDirty_hits::.writebacks        15152                       # number of WritebackDirty hits
system.l2cache.WritebackDirty_hits::total        15152                       # number of WritebackDirty hits
system.l2cache.WritebackDirty_accesses::.writebacks        15152                       # number of WritebackDirty accesses(hits+misses)
system.l2cache.WritebackDirty_accesses::total        15152                       # number of WritebackDirty accesses(hits+misses)
system.l2cache.power_state.pwrStateResidencyTicks::UNDEFINED  24483787000                       # Cumulative time (in ticks) in various power states
system.l2cache.tags.tagsinuse              510.375242                       # Cycle average of tags in use
system.l2cache.tags.total_refs                 109707                       # Total number of references to valid blocks.
system.l2cache.tags.sampled_refs                78488                       # Sample count of references to valid blocks.
system.l2cache.tags.avg_refs                 1.397755                       # Average number of references to valid blocks.
system.l2cache.tags.warmup_cycle                78000                       # Cycle when the warmup percentage was hit.
system.l2cache.tags.occ_blocks::.writebacks    69.710412                       # Average occupied blocks per requestor
system.l2cache.tags.occ_blocks::.cpu.inst    51.025787                       # Average occupied blocks per requestor
system.l2cache.tags.occ_blocks::.cpu.data   389.639043                       # Average occupied blocks per requestor
system.l2cache.tags.occ_percent::.writebacks     0.136153                       # Average percentage of cache occupancy
system.l2cache.tags.occ_percent::.cpu.inst     0.099660                       # Average percentage of cache occupancy
system.l2cache.tags.occ_percent::.cpu.data     0.761014                       # Average percentage of cache occupancy
system.l2cache.tags.occ_percent::total       0.996827                       # Average percentage of cache occupancy
system.l2cache.tags.occ_task_id_blocks::1024          512                       # Occupied blocks per task id
system.l2cache.tags.age_task_id_blocks_1024::0           26                       # Occupied blocks per task id
system.l2cache.tags.age_task_id_blocks_1024::1          230                       # Occupied blocks per task id
system.l2cache.tags.age_task_id_blocks_1024::2          256                       # Occupied blocks per task id
system.l2cache.tags.occ_task_id_percent::1024            1                       # Percentage of cache occupancy per task id
system.l2cache.tags.tag_accesses               188195                       # Number of tag accesses
system.l2cache.tags.data_accesses              188195                       # Number of data accesses
system.l2cache.tags.power_state.pwrStateResidencyTicks::UNDEFINED  24483787000                       # Cumulative time (in ticks) in various power states
system.l2bar.trans_dist::ReadReq                94555                       # Transaction distribution
system.l2bar.trans_dist::ReadResp               94555                       # Transaction distribution
system.l2bar.trans_dist::WritebackDirty         15152                       # Transaction distribution
system.l2bar.pkt_count_system.dcache.mem_side::system.l2cache.cpu_side       128350                       # Packet count per connected master and slave (bytes)
system.l2bar.pkt_count_system.icache.mem_side::system.l2cache.cpu_side        75912                       # Packet count per connected master and slave (bytes)
system.l2bar.pkt_count::total                  204262                       # Packet count per connected master and slave (bytes)
system.l2bar.pkt_size_system.dcache.mem_side::system.l2cache.cpu_side      4592064                       # Cumulative packet size per connected master and slave (bytes)
system.l2bar.pkt_size_system.icache.mem_side::system.l2cache.cpu_side      2429184                       # Cumulative packet size per connected master and slave (bytes)
system.l2bar.pkt_size::total                  7021248                       # Cumulative packet size per connected master and slave (bytes)
system.l2bar.respLayer1.occupancy           189780000                       # Layer occupancy (ticks)
system.l2bar.respLayer1.utilization               0.8                       # Layer utilization (%)
system.l2bar.reqLayer0.occupancy            170315000                       # Layer occupancy (ticks)
system.l2bar.reqLayer0.utilization                0.7                       # Layer utilization (%)
system.l2bar.respLayer0.occupancy           282995000                       # Layer occupancy (ticks)
system.l2bar.respLayer0.utilization               1.2                       # Layer utilization (%)
system.l2bar.power_state.pwrStateResidencyTicks::UNDEFINED  24483787000                       # Cumulative time (in ticks) in various power states
system.cpu.dtb.walker.power_state.pwrStateResidencyTicks::UNDEFINED  24483787000                       # Cumulative time (in ticks) in various power states
system.cpu.interrupts.clk_domain.clock          16000                       # Clock period in ticks
system.cpu.itb.walker.power_state.pwrStateResidencyTicks::UNDEFINED  24483787000                       # Cumulative time (in ticks) in various power states
system.cpu.power_state.numTransitions               1                       # Number of power state transitions
system.cpu.power_state.pwrStateResidencyTicks::ON  24483787000                       # Cumulative time (in ticks) in various power states

---------- End Simulation Statistics   ----------
