
---------- Begin Simulation Statistics ----------
final_tick                                40725336000                       # Number of ticks from beginning of simulation (restored from checkpoints and never reset)
host_inst_rate                                 565582                       # Simulator instruction rate (inst/s)
host_mem_usage                                 703844                       # Number of bytes of host memory used
host_op_rate                                  1055823                       # Simulator op (including micro ops) rate (op/s)
host_seconds                                    17.68                       # Real time elapsed on the host
host_tick_rate                             2303327461                       # Simulator tick rate (ticks/s)
sim_freq                                 1000000000000                       # Frequency of simulated ticks
sim_insts                                    10000001                       # Number of instructions simulated
sim_ops                                      18668059                       # Number of ops (including micro ops) simulated
sim_seconds                                  0.040725                       # Number of seconds simulated
sim_ticks                                 40725336000                       # Number of ticks simulated
system.cpu.Branches                           1141235                       # Number of branches fetched
system.cpu.committedInsts                    10000001                       # Number of instructions committed
system.cpu.committedOps                      18668059                       # Number of ops (including micro ops) committed
system.cpu.dtb.rdAccesses                     1811695                       # TLB accesses on read requests
system.cpu.dtb.rdMisses                            33                       # TLB misses on read requests
system.cpu.dtb.wrAccesses                      356578                       # TLB accesses on write requests
system.cpu.dtb.wrMisses                           265                       # TLB misses on write requests
system.cpu.idle_fraction                            0                       # Percentage of idle cycles
system.cpu.itb.rdAccesses                           0                       # TLB accesses on read requests
system.cpu.itb.rdMisses                             0                       # TLB misses on read requests
system.cpu.itb.wrAccesses                    14665294                       # TLB accesses on write requests
system.cpu.itb.wrMisses                            95                       # TLB misses on write requests
system.cpu.not_idle_fraction                        1                       # Percentage of non-idle cycles
system.cpu.numCycles                         40725336                       # number of cpu cycles simulated
system.cpu.numWorkItemsCompleted                    0                       # number of work items this cpu completed
system.cpu.numWorkItemsStarted                      0                       # number of work items this cpu started
system.cpu.num_busy_cycles                   40725336                       # Number of busy cycles
system.cpu.num_cc_register_reads              5915138                       # number of times the CC registers were read
system.cpu.num_cc_register_writes             4861795                       # number of times the CC registers were written
system.cpu.num_conditional_control_insts       811873                       # number of instructions that are conditional controls
system.cpu.num_fp_alu_accesses                8247640                       # Number of float alu accesses
system.cpu.num_fp_insts                       8247640                       # number of float instructions
system.cpu.num_fp_register_reads             14418264                       # number of times the floating registers were read
system.cpu.num_fp_register_writes             7916966                       # number of times the floating registers were written
system.cpu.num_func_calls                      218494                       # number of times a function call or return occured
system.cpu.num_idle_cycles                          0                       # Number of idle cycles
system.cpu.num_int_alu_accesses              12470198                       # Number of integer alu accesses
system.cpu.num_int_insts                     12470198                       # number of integer instructions
system.cpu.num_int_register_reads            21938106                       # number of times the integer registers were read
system.cpu.num_int_register_writes            9335082                       # number of times the integer registers were written
system.cpu.num_load_insts                     1811689                       # Number of load instructions
system.cpu.num_mem_refs                       2168265                       # number of memory refs
system.cpu.num_store_insts                     356576                       # Number of store instructions
system.cpu.num_vec_alu_accesses                     0                       # Number of vector alu accesses
system.cpu.num_vec_insts                            0                       # number of vector instructions
system.cpu.num_vec_register_reads                   0                       # number of times the vector registers were read
system.cpu.num_vec_register_writes                  0                       # number of times the vector registers were written
system.cpu.op_class::No_OpClass                 18822      0.10%      0.10% # Class of executed instruction
system.cpu.op_class::IntAlu                  11161225     59.79%     59.89% # Class of executed instruction
system.cpu.op_class::IntMult                     1565      0.01%     59.90% # Class of executed instruction
system.cpu.op_class::IntDiv                     95123      0.51%     60.41% # Class of executed instruction
system.cpu.op_class::FloatAdd                  766080      4.10%     64.51% # Class of executed instruction
system.cpu.op_class::FloatCmp                       0      0.00%     64.51% # Class of executed instruction
system.cpu.op_class::FloatCvt                       0      0.00%     64.51% # Class of executed instruction
system.cpu.op_class::FloatMult                      0      0.00%     64.51% # Class of executed instruction
system.cpu.op_class::FloatMultAcc                   0      0.00%     64.51% # Class of executed instruction
system.cpu.op_class::FloatDiv                       0      0.00%     64.51% # Class of executed instruction
system.cpu.op_class::FloatMisc                      0      0.00%     64.51% # Class of executed instruction
system.cpu.op_class::FloatSqrt                      0      0.00%     64.51% # Class of executed instruction
system.cpu.op_class::SimdAdd                      916      0.00%     64.51% # Class of executed instruction
system.cpu.op_class::SimdAddAcc                     0      0.00%     64.51% # Class of executed instruction
system.cpu.op_class::SimdAlu                   434680      2.33%     66.84% # Class of executed instruction
system.cpu.op_class::SimdCmp                        0      0.00%     66.84% # Class of executed instruction
system.cpu.op_class::SimdCvt                     2058      0.01%     66.85% # Class of executed instruction
system.cpu.op_class::SimdMisc                  542803      2.91%     69.76% # Class of executed instruction
system.cpu.op_class::SimdMult                       0      0.00%     69.76% # Class of executed instruction
system.cpu.op_class::SimdMultAcc                    0      0.00%     69.76% # Class of executed instruction
system.cpu.op_class::SimdShift                    592      0.00%     69.77% # Class of executed instruction
system.cpu.op_class::SimdShiftAcc                   0      0.00%     69.77% # Class of executed instruction
system.cpu.op_class::SimdDiv                        0      0.00%     69.77% # Class of executed instruction
system.cpu.op_class::SimdSqrt                       0      0.00%     69.77% # Class of executed instruction
system.cpu.op_class::SimdFloatAdd             1627637      8.72%     78.48% # Class of executed instruction
system.cpu.op_class::SimdFloatAlu                   0      0.00%     78.48% # Class of executed instruction
system.cpu.op_class::SimdFloatCmp                   0      0.00%     78.48% # Class of executed instruction
system.cpu.op_class::SimdFloatCvt              433330      2.32%     80.81% # Class of executed instruction
system.cpu.op_class::SimdFloatDiv              216384      1.16%     81.96% # Class of executed instruction
system.cpu.op_class::SimdFloatMisc                  0      0.00%     81.96% # Class of executed instruction
system.cpu.op_class::SimdFloatMult            1198707      6.42%     88.39% # Class of executed instruction
system.cpu.op_class::SimdFloatMultAcc               0      0.00%     88.39% # Class of executed instruction
system.cpu.op_class::SimdFloatSqrt                  0      0.00%     88.39% # Class of executed instruction
system.cpu.op_class::SimdReduceAdd                  0      0.00%     88.39% # Class of executed instruction
system.cpu.op_class::SimdReduceAlu                  0      0.00%     88.39% # Class of executed instruction
system.cpu.op_class::SimdReduceCmp                  0      0.00%     88.39% # Class of executed instruction
system.cpu.op_class::SimdFloatReduceAdd             0      0.00%     88.39% # Class of executed instruction
system.cpu.op_class::SimdFloatReduceCmp             0      0.00%     88.39% # Class of executed instruction
system.cpu.op_class::SimdAes                        0      0.00%     88.39% # Class of executed instruction
system.cpu.op_class::SimdAesMix                     0      0.00%     88.39% # Class of executed instruction
system.cpu.op_class::SimdSha1Hash                   0      0.00%     88.39% # Class of executed instruction
system.cpu.op_class::SimdSha1Hash2                  0      0.00%     88.39% # Class of executed instruction
system.cpu.op_class::SimdSha256Hash                 0      0.00%     88.39% # Class of executed instruction
system.cpu.op_class::SimdSha256Hash2                0      0.00%     88.39% # Class of executed instruction
system.cpu.op_class::SimdShaSigma2                  0      0.00%     88.39% # Class of executed instruction
system.cpu.op_class::SimdShaSigma3                  0      0.00%     88.39% # Class of executed instruction
system.cpu.op_class::SimdPredAlu                    0      0.00%     88.39% # Class of executed instruction
system.cpu.op_class::MemRead                   290000      1.55%     89.94% # Class of executed instruction
system.cpu.op_class::MemWrite                  352012      1.89%     91.82% # Class of executed instruction
system.cpu.op_class::FloatMemRead             1521689      8.15%     99.98% # Class of executed instruction
system.cpu.op_class::FloatMemWrite               4564      0.02%    100.00% # Class of executed instruction
system.cpu.op_class::IprAccess                      0      0.00%    100.00% # Class of executed instruction
system.cpu.op_class::InstPrefetch                   0      0.00%    100.00% # Class of executed instruction
system.cpu.op_class::total                   18668187                       # Class of executed instruction
system.cpu.workload.numSyscalls                    25                       # Number of system calls
system.l2bar.snoop_filter.hit_multi_requests            1                       # Number of requests hitting in the snoop filter with multiple (>1) holders of the requested data.
system.l2bar.snoop_filter.hit_multi_snoops            0                       # Number of snoops hitting in the snoop filter with multiple (>1) holders of the requested data.
system.l2bar.snoop_filter.hit_single_requests        15733                       # Number of requests hitting in the snoop filter with a single holder of the requested data.
system.l2bar.snoop_filter.hit_single_snoops         2443                       # Number of snoops hitting in the snoop filter with a single holder of the requested data.
system.l2bar.snoop_filter.tot_requests          32433                       # Total number of requests made to the snoop filter.
system.l2bar.snoop_filter.tot_snoops             2443                       # Total number of snoops made to the snoop filter.
system.membus.snoop_filter.hit_multi_requests            0                       # Number of requests hitting in the snoop filter with multiple (>1) holders of the requested data.
system.membus.snoop_filter.hit_multi_snoops            0                       # Number of snoops hitting in the snoop filter with multiple (>1) holders of the requested data.
system.membus.snoop_filter.hit_single_requests          160                       # Number of requests hitting in the snoop filter with a single holder of the requested data.
system.membus.snoop_filter.hit_single_snoops            0                       # Number of snoops hitting in the snoop filter with a single holder of the requested data.
system.membus.snoop_filter.tot_requests          9494                       # Total number of requests made to the snoop filter.
system.membus.snoop_filter.tot_snoops               0                       # Total number of snoops made to the snoop filter.
system.membus.trans_dist::ReadResp               1419                       # Transaction distribution
system.membus.trans_dist::CleanEvict              160                       # Transaction distribution
system.membus.trans_dist::ReadExReq              7915                       # Transaction distribution
system.membus.trans_dist::ReadExResp             7915                       # Transaction distribution
system.membus.trans_dist::ReadSharedReq          1419                       # Transaction distribution
system.membus.pkt_count_system.DynamicCache.mem_side::system.mem_delay-slave        18828                       # Packet count per connected master and slave (bytes)
system.membus.pkt_count_system.DynamicCache.mem_side::total        18828                       # Packet count per connected master and slave (bytes)
system.membus.pkt_count::total                  18828                       # Packet count per connected master and slave (bytes)
system.membus.pkt_size_system.DynamicCache.mem_side::system.mem_delay-slave       597376                       # Cumulative packet size per connected master and slave (bytes)
system.membus.pkt_size_system.DynamicCache.mem_side::total       597376                       # Cumulative packet size per connected master and slave (bytes)
system.membus.pkt_size::total                  597376                       # Cumulative packet size per connected master and slave (bytes)
system.membus.snoops                                0                       # Total snoops (count)
system.membus.snoopTraffic                          0                       # Total snoop traffic (bytes)
system.membus.snoop_fanout::samples              9334                       # Request fanout histogram
system.membus.snoop_fanout::mean                    0                       # Request fanout histogram
system.membus.snoop_fanout::stdev                   0                       # Request fanout histogram
system.membus.snoop_fanout::underflows              0      0.00%      0.00% # Request fanout histogram
system.membus.snoop_fanout::0                    9334    100.00%    100.00% # Request fanout histogram
system.membus.snoop_fanout::1                       0      0.00%    100.00% # Request fanout histogram
system.membus.snoop_fanout::overflows               0      0.00%    100.00% # Request fanout histogram
system.membus.snoop_fanout::min_value               0                       # Request fanout histogram
system.membus.snoop_fanout::max_value               0                       # Request fanout histogram
system.membus.snoop_fanout::total                9334                       # Request fanout histogram
system.membus.reqLayer0.occupancy             9494000                       # Layer occupancy (ticks)
system.membus.reqLayer0.utilization               0.0                       # Layer utilization (%)
system.membus.respLayer0.occupancy           50436500                       # Layer occupancy (ticks)
system.membus.respLayer0.utilization              0.1                       # Layer utilization (%)
system.membus.power_state.pwrStateResidencyTicks::UNDEFINED  40725336000                       # Cumulative time (in ticks) in various power states
system.icache.demand_hits::.cpu.inst         14663906                       # number of demand (read+write) hits
system.icache.demand_hits::total             14663906                       # number of demand (read+write) hits
system.icache.overall_hits::.cpu.inst        14663906                       # number of overall hits
system.icache.overall_hits::total            14663906                       # number of overall hits
system.icache.demand_misses::.cpu.inst           1388                       # number of demand (read+write) misses
system.icache.demand_misses::total               1388                       # number of demand (read+write) misses
system.icache.overall_misses::.cpu.inst          1388                       # number of overall misses
system.icache.overall_misses::total              1388                       # number of overall misses
system.icache.demand_miss_latency::.cpu.inst    866628000                       # number of demand (read+write) miss cycles
system.icache.demand_miss_latency::total    866628000                       # number of demand (read+write) miss cycles
system.icache.overall_miss_latency::.cpu.inst    866628000                       # number of overall miss cycles
system.icache.overall_miss_latency::total    866628000                       # number of overall miss cycles
system.icache.demand_accesses::.cpu.inst     14665294                       # number of demand (read+write) accesses
system.icache.demand_accesses::total         14665294                       # number of demand (read+write) accesses
system.icache.overall_accesses::.cpu.inst     14665294                       # number of overall (read+write) accesses
system.icache.overall_accesses::total        14665294                       # number of overall (read+write) accesses
system.icache.demand_miss_rate::.cpu.inst     0.000095                       # miss rate for demand accesses
system.icache.demand_miss_rate::total        0.000095                       # miss rate for demand accesses
system.icache.overall_miss_rate::.cpu.inst     0.000095                       # miss rate for overall accesses
system.icache.overall_miss_rate::total       0.000095                       # miss rate for overall accesses
system.icache.demand_avg_miss_latency::.cpu.inst 624371.757925                       # average overall miss latency
system.icache.demand_avg_miss_latency::total 624371.757925                       # average overall miss latency
system.icache.overall_avg_miss_latency::.cpu.inst 624371.757925                       # average overall miss latency
system.icache.overall_avg_miss_latency::total 624371.757925                       # average overall miss latency
system.icache.blocked_cycles::no_mshrs              0                       # number of cycles access was blocked
system.icache.blocked_cycles::no_targets            0                       # number of cycles access was blocked
system.icache.blocked::no_mshrs                     0                       # number of cycles access was blocked
system.icache.blocked::no_targets                   0                       # number of cycles access was blocked
system.icache.avg_blocked_cycles::no_mshrs          nan                       # average number of cycles each access was blocked
system.icache.avg_blocked_cycles::no_targets          nan                       # average number of cycles each access was blocked
system.icache.demand_mshr_misses::.cpu.inst         1388                       # number of demand (read+write) MSHR misses
system.icache.demand_mshr_misses::total          1388                       # number of demand (read+write) MSHR misses
system.icache.overall_mshr_misses::.cpu.inst         1388                       # number of overall MSHR misses
system.icache.overall_mshr_misses::total         1388                       # number of overall MSHR misses
system.icache.demand_mshr_miss_latency::.cpu.inst    863852000                       # number of demand (read+write) MSHR miss cycles
system.icache.demand_mshr_miss_latency::total    863852000                       # number of demand (read+write) MSHR miss cycles
system.icache.overall_mshr_miss_latency::.cpu.inst    863852000                       # number of overall MSHR miss cycles
system.icache.overall_mshr_miss_latency::total    863852000                       # number of overall MSHR miss cycles
system.icache.demand_mshr_miss_rate::.cpu.inst     0.000095                       # mshr miss rate for demand accesses
system.icache.demand_mshr_miss_rate::total     0.000095                       # mshr miss rate for demand accesses
system.icache.overall_mshr_miss_rate::.cpu.inst     0.000095                       # mshr miss rate for overall accesses
system.icache.overall_mshr_miss_rate::total     0.000095                       # mshr miss rate for overall accesses
system.icache.demand_avg_mshr_miss_latency::.cpu.inst 622371.757925                       # average overall mshr miss latency
system.icache.demand_avg_mshr_miss_latency::total 622371.757925                       # average overall mshr miss latency
system.icache.overall_avg_mshr_miss_latency::.cpu.inst 622371.757925                       # average overall mshr miss latency
system.icache.overall_avg_mshr_miss_latency::total 622371.757925                       # average overall mshr miss latency
system.icache.replacements                        927                       # number of replacements
system.icache.ReadReq_hits::.cpu.inst        14663906                       # number of ReadReq hits
system.icache.ReadReq_hits::total            14663906                       # number of ReadReq hits
system.icache.ReadReq_misses::.cpu.inst          1388                       # number of ReadReq misses
system.icache.ReadReq_misses::total              1388                       # number of ReadReq misses
system.icache.ReadReq_miss_latency::.cpu.inst    866628000                       # number of ReadReq miss cycles
system.icache.ReadReq_miss_latency::total    866628000                       # number of ReadReq miss cycles
system.icache.ReadReq_accesses::.cpu.inst     14665294                       # number of ReadReq accesses(hits+misses)
system.icache.ReadReq_accesses::total        14665294                       # number of ReadReq accesses(hits+misses)
system.icache.ReadReq_miss_rate::.cpu.inst     0.000095                       # miss rate for ReadReq accesses
system.icache.ReadReq_miss_rate::total       0.000095                       # miss rate for ReadReq accesses
system.icache.ReadReq_avg_miss_latency::.cpu.inst 624371.757925                       # average ReadReq miss latency
system.icache.ReadReq_avg_miss_latency::total 624371.757925                       # average ReadReq miss latency
system.icache.ReadReq_mshr_misses::.cpu.inst         1388                       # number of ReadReq MSHR misses
system.icache.ReadReq_mshr_misses::total         1388                       # number of ReadReq MSHR misses
system.icache.ReadReq_mshr_miss_latency::.cpu.inst    863852000                       # number of ReadReq MSHR miss cycles
system.icache.ReadReq_mshr_miss_latency::total    863852000                       # number of ReadReq MSHR miss cycles
system.icache.ReadReq_mshr_miss_rate::.cpu.inst     0.000095                       # mshr miss rate for ReadReq accesses
system.icache.ReadReq_mshr_miss_rate::total     0.000095                       # mshr miss rate for ReadReq accesses
system.icache.ReadReq_avg_mshr_miss_latency::.cpu.inst 622371.757925                       # average ReadReq mshr miss latency
system.icache.ReadReq_avg_mshr_miss_latency::total 622371.757925                       # average ReadReq mshr miss latency
system.icache.power_state.pwrStateResidencyTicks::UNDEFINED  40725336000                       # Cumulative time (in ticks) in various power states
system.icache.tags.tagsinuse               454.464816                       # Cycle average of tags in use
system.icache.tags.total_refs                14665294                       # Total number of references to valid blocks.
system.icache.tags.sampled_refs                  1388                       # Sample count of references to valid blocks.
system.icache.tags.avg_refs              10565.773775                       # Average number of references to valid blocks.
system.icache.tags.warmup_cycle                729000                       # Cycle when the warmup percentage was hit.
system.icache.tags.occ_blocks::.cpu.inst   454.464816                       # Average occupied blocks per requestor
system.icache.tags.occ_percent::.cpu.inst     0.887627                       # Average percentage of cache occupancy
system.icache.tags.occ_percent::total        0.887627                       # Average percentage of cache occupancy
system.icache.tags.occ_task_id_blocks::1024          461                       # Occupied blocks per task id
system.icache.tags.age_task_id_blocks_1024::3            1                       # Occupied blocks per task id
system.icache.tags.age_task_id_blocks_1024::4          460                       # Occupied blocks per task id
system.icache.tags.occ_task_id_percent::1024     0.900391                       # Percentage of cache occupancy per task id
system.icache.tags.tag_accesses              14666682                       # Number of tag accesses
system.icache.tags.data_accesses             14666682                       # Number of data accesses
system.icache.tags.power_state.pwrStateResidencyTicks::UNDEFINED  40725336000                       # Cumulative time (in ticks) in various power states
system.mem_delay.power_state.pwrStateResidencyTicks::UNDEFINED  40725336000                       # Cumulative time (in ticks) in various power states
system.mem_ctrl.bytes_read::.cpu.inst           75072                       # Number of bytes read from this memory
system.mem_ctrl.bytes_read::.cpu.data          522304                       # Number of bytes read from this memory
system.mem_ctrl.bytes_read::total              597376                       # Number of bytes read from this memory
system.mem_ctrl.bytes_inst_read::.cpu.inst        75072                       # Number of instructions bytes read from this memory
system.mem_ctrl.bytes_inst_read::total          75072                       # Number of instructions bytes read from this memory
system.mem_ctrl.num_reads::.cpu.inst             1173                       # Number of read requests responded to by this memory
system.mem_ctrl.num_reads::.cpu.data             8161                       # Number of read requests responded to by this memory
system.mem_ctrl.num_reads::total                 9334                       # Number of read requests responded to by this memory
system.mem_ctrl.bw_read::.cpu.inst            1843373                       # Total read bandwidth from this memory (bytes/s)
system.mem_ctrl.bw_read::.cpu.data           12825038                       # Total read bandwidth from this memory (bytes/s)
system.mem_ctrl.bw_read::total               14668412                       # Total read bandwidth from this memory (bytes/s)
system.mem_ctrl.bw_inst_read::.cpu.inst       1843373                       # Instruction read bandwidth from this memory (bytes/s)
system.mem_ctrl.bw_inst_read::total           1843373                       # Instruction read bandwidth from this memory (bytes/s)
system.mem_ctrl.bw_total::.cpu.inst           1843373                       # Total bandwidth to/from this memory (bytes/s)
system.mem_ctrl.bw_total::.cpu.data          12825038                       # Total bandwidth to/from this memory (bytes/s)
system.mem_ctrl.bw_total::total              14668412                       # Total bandwidth to/from this memory (bytes/s)
system.mem_ctrl.avgPriority_.cpu.inst::samples      1173.00                       # Average QoS priority value for accepted requests
system.mem_ctrl.avgPriority_.cpu.data::samples      8161.00                       # Average QoS priority value for accepted requests
system.mem_ctrl.priorityMinLatency       0.000000018750                       # per QoS priority minimum request to response latency (s)
system.mem_ctrl.priorityMaxLatency       0.000000579000                       # per QoS priority maximum request to response latency (s)
system.mem_ctrl.numReadWriteTurnArounds             0                       # Number of turnarounds from READ to WRITE
system.mem_ctrl.numWriteReadTurnArounds             0                       # Number of turnarounds from WRITE to READ
system.mem_ctrl.numStayReadState                29128                       # Number of times bus staying in READ state
system.mem_ctrl.numStayWriteState                   0                       # Number of times bus staying in WRITE state
system.mem_ctrl.readReqs                         9334                       # Number of read requests accepted
system.mem_ctrl.writeReqs                           0                       # Number of write requests accepted
system.mem_ctrl.readBursts                       9334                       # Number of DRAM read bursts, including those serviced by the write queue
system.mem_ctrl.writeBursts                         0                       # Number of DRAM write bursts, including those merged in the write queue
system.mem_ctrl.servicedByWrQ                       0                       # Number of DRAM read bursts serviced by the write queue
system.mem_ctrl.mergedWrBursts                      0                       # Number of DRAM write bursts merged with an existing one
system.mem_ctrl.neitherReadNorWriteReqs             0                       # Number of requests that are neither read nor write
system.mem_ctrl.perBankRdBursts::0                585                       # Per bank write bursts
system.mem_ctrl.perBankRdBursts::1                669                       # Per bank write bursts
system.mem_ctrl.perBankRdBursts::2                681                       # Per bank write bursts
system.mem_ctrl.perBankRdBursts::3                659                       # Per bank write bursts
system.mem_ctrl.perBankRdBursts::4                579                       # Per bank write bursts
system.mem_ctrl.perBankRdBursts::5                521                       # Per bank write bursts
system.mem_ctrl.perBankRdBursts::6                546                       # Per bank write bursts
system.mem_ctrl.perBankRdBursts::7                486                       # Per bank write bursts
system.mem_ctrl.perBankRdBursts::8                415                       # Per bank write bursts
system.mem_ctrl.perBankRdBursts::9                578                       # Per bank write bursts
system.mem_ctrl.perBankRdBursts::10               677                       # Per bank write bursts
system.mem_ctrl.perBankRdBursts::11               556                       # Per bank write bursts
system.mem_ctrl.perBankRdBursts::12               627                       # Per bank write bursts
system.mem_ctrl.perBankRdBursts::13               665                       # Per bank write bursts
system.mem_ctrl.perBankRdBursts::14               629                       # Per bank write bursts
system.mem_ctrl.perBankRdBursts::15               461                       # Per bank write bursts
system.mem_ctrl.perBankWrBursts::0                  0                       # Per bank write bursts
system.mem_ctrl.perBankWrBursts::1                  0                       # Per bank write bursts
system.mem_ctrl.perBankWrBursts::2                  0                       # Per bank write bursts
system.mem_ctrl.perBankWrBursts::3                  0                       # Per bank write bursts
system.mem_ctrl.perBankWrBursts::4                  0                       # Per bank write bursts
system.mem_ctrl.perBankWrBursts::5                  0                       # Per bank write bursts
system.mem_ctrl.perBankWrBursts::6                  0                       # Per bank write bursts
system.mem_ctrl.perBankWrBursts::7                  0                       # Per bank write bursts
system.mem_ctrl.perBankWrBursts::8                  0                       # Per bank write bursts
system.mem_ctrl.perBankWrBursts::9                  0                       # Per bank write bursts
system.mem_ctrl.perBankWrBursts::10                 0                       # Per bank write bursts
system.mem_ctrl.perBankWrBursts::11                 0                       # Per bank write bursts
system.mem_ctrl.perBankWrBursts::12                 0                       # Per bank write bursts
system.mem_ctrl.perBankWrBursts::13                 0                       # Per bank write bursts
system.mem_ctrl.perBankWrBursts::14                 0                       # Per bank write bursts
system.mem_ctrl.perBankWrBursts::15                 0                       # Per bank write bursts
system.mem_ctrl.avgRdQLen                        1.00                       # Average read queue length when enqueuing
system.mem_ctrl.avgWrQLen                        0.00                       # Average write queue length when enqueuing
system.mem_ctrl.totQLat                     153477500                       # Total ticks spent queuing
system.mem_ctrl.totBusLat                    46670000                       # Total ticks spent in databus transfers
system.mem_ctrl.totMemAccLat                328490000                       # Total ticks spent from burst creation until serviced by the DRAM
system.mem_ctrl.avgQLat                      16442.84                       # Average queueing delay per DRAM burst
system.mem_ctrl.avgBusLat                     5000.00                       # Average bus latency per DRAM burst
system.mem_ctrl.avgMemAccLat                 35192.84                       # Average memory access latency per DRAM burst
system.mem_ctrl.numRdRetry                          0                       # Number of times read queue was full causing retry
system.mem_ctrl.numWrRetry                          0                       # Number of times write queue was full causing retry
system.mem_ctrl.readRowHits                      3424                       # Number of row buffer hits during reads
system.mem_ctrl.writeRowHits                        0                       # Number of row buffer hits during writes
system.mem_ctrl.readRowHitRate                  36.68                       # Row buffer hit rate for reads
system.mem_ctrl.writeRowHitRate                   nan                       # Row buffer hit rate for writes
system.mem_ctrl.readPktSize::0                      0                       # Read request sizes (log2)
system.mem_ctrl.readPktSize::1                      0                       # Read request sizes (log2)
system.mem_ctrl.readPktSize::2                      0                       # Read request sizes (log2)
system.mem_ctrl.readPktSize::3                      0                       # Read request sizes (log2)
system.mem_ctrl.readPktSize::4                      0                       # Read request sizes (log2)
system.mem_ctrl.readPktSize::5                      0                       # Read request sizes (log2)
system.mem_ctrl.readPktSize::6                   9334                       # Read request sizes (log2)
system.mem_ctrl.writePktSize::0                     0                       # Write request sizes (log2)
system.mem_ctrl.writePktSize::1                     0                       # Write request sizes (log2)
system.mem_ctrl.writePktSize::2                     0                       # Write request sizes (log2)
system.mem_ctrl.writePktSize::3                     0                       # Write request sizes (log2)
system.mem_ctrl.writePktSize::4                     0                       # Write request sizes (log2)
system.mem_ctrl.writePktSize::5                     0                       # Write request sizes (log2)
system.mem_ctrl.writePktSize::6                     0                       # Write request sizes (log2)
system.mem_ctrl.rdQLenPdf::0                     9333                       # What read queue length does an incoming req see
system.mem_ctrl.rdQLenPdf::1                        1                       # What read queue length does an incoming req see
system.mem_ctrl.rdQLenPdf::2                        0                       # What read queue length does an incoming req see
system.mem_ctrl.rdQLenPdf::3                        0                       # What read queue length does an incoming req see
system.mem_ctrl.rdQLenPdf::4                        0                       # What read queue length does an incoming req see
system.mem_ctrl.rdQLenPdf::5                        0                       # What read queue length does an incoming req see
system.mem_ctrl.rdQLenPdf::6                        0                       # What read queue length does an incoming req see
system.mem_ctrl.rdQLenPdf::7                        0                       # What read queue length does an incoming req see
system.mem_ctrl.rdQLenPdf::8                        0                       # What read queue length does an incoming req see
system.mem_ctrl.rdQLenPdf::9                        0                       # What read queue length does an incoming req see
system.mem_ctrl.rdQLenPdf::10                       0                       # What read queue length does an incoming req see
system.mem_ctrl.rdQLenPdf::11                       0                       # What read queue length does an incoming req see
system.mem_ctrl.rdQLenPdf::12                       0                       # What read queue length does an incoming req see
system.mem_ctrl.rdQLenPdf::13                       0                       # What read queue length does an incoming req see
system.mem_ctrl.rdQLenPdf::14                       0                       # What read queue length does an incoming req see
system.mem_ctrl.rdQLenPdf::15                       0                       # What read queue length does an incoming req see
system.mem_ctrl.rdQLenPdf::16                       0                       # What read queue length does an incoming req see
system.mem_ctrl.rdQLenPdf::17                       0                       # What read queue length does an incoming req see
system.mem_ctrl.rdQLenPdf::18                       0                       # What read queue length does an incoming req see
system.mem_ctrl.rdQLenPdf::19                       0                       # What read queue length does an incoming req see
system.mem_ctrl.rdQLenPdf::20                       0                       # What read queue length does an incoming req see
system.mem_ctrl.rdQLenPdf::21                       0                       # What read queue length does an incoming req see
system.mem_ctrl.rdQLenPdf::22                       0                       # What read queue length does an incoming req see
system.mem_ctrl.rdQLenPdf::23                       0                       # What read queue length does an incoming req see
system.mem_ctrl.rdQLenPdf::24                       0                       # What read queue length does an incoming req see
system.mem_ctrl.rdQLenPdf::25                       0                       # What read queue length does an incoming req see
system.mem_ctrl.rdQLenPdf::26                       0                       # What read queue length does an incoming req see
system.mem_ctrl.rdQLenPdf::27                       0                       # What read queue length does an incoming req see
system.mem_ctrl.rdQLenPdf::28                       0                       # What read queue length does an incoming req see
system.mem_ctrl.rdQLenPdf::29                       0                       # What read queue length does an incoming req see
system.mem_ctrl.rdQLenPdf::30                       0                       # What read queue length does an incoming req see
system.mem_ctrl.rdQLenPdf::31                       0                       # What read queue length does an incoming req see
system.mem_ctrl.wrQLenPdf::0                        0                       # What write queue length does an incoming req see
system.mem_ctrl.wrQLenPdf::1                        0                       # What write queue length does an incoming req see
system.mem_ctrl.wrQLenPdf::2                        0                       # What write queue length does an incoming req see
system.mem_ctrl.wrQLenPdf::3                        0                       # What write queue length does an incoming req see
system.mem_ctrl.wrQLenPdf::4                        0                       # What write queue length does an incoming req see
system.mem_ctrl.wrQLenPdf::5                        0                       # What write queue length does an incoming req see
system.mem_ctrl.wrQLenPdf::6                        0                       # What write queue length does an incoming req see
system.mem_ctrl.wrQLenPdf::7                        0                       # What write queue length does an incoming req see
system.mem_ctrl.wrQLenPdf::8                        0                       # What write queue length does an incoming req see
system.mem_ctrl.wrQLenPdf::9                        0                       # What write queue length does an incoming req see
system.mem_ctrl.wrQLenPdf::10                       0                       # What write queue length does an incoming req see
system.mem_ctrl.wrQLenPdf::11                       0                       # What write queue length does an incoming req see
system.mem_ctrl.wrQLenPdf::12                       0                       # What write queue length does an incoming req see
system.mem_ctrl.wrQLenPdf::13                       0                       # What write queue length does an incoming req see
system.mem_ctrl.wrQLenPdf::14                       0                       # What write queue length does an incoming req see
system.mem_ctrl.wrQLenPdf::15                       0                       # What write queue length does an incoming req see
system.mem_ctrl.wrQLenPdf::16                       0                       # What write queue length does an incoming req see
system.mem_ctrl.wrQLenPdf::17                       0                       # What write queue length does an incoming req see
system.mem_ctrl.wrQLenPdf::18                       0                       # What write queue length does an incoming req see
system.mem_ctrl.wrQLenPdf::19                       0                       # What write queue length does an incoming req see
system.mem_ctrl.wrQLenPdf::20                       0                       # What write queue length does an incoming req see
system.mem_ctrl.wrQLenPdf::21                       0                       # What write queue length does an incoming req see
system.mem_ctrl.wrQLenPdf::22                       0                       # What write queue length does an incoming req see
system.mem_ctrl.wrQLenPdf::23                       0                       # What write queue length does an incoming req see
system.mem_ctrl.wrQLenPdf::24                       0                       # What write queue length does an incoming req see
system.mem_ctrl.wrQLenPdf::25                       0                       # What write queue length does an incoming req see
system.mem_ctrl.wrQLenPdf::26                       0                       # What write queue length does an incoming req see
system.mem_ctrl.wrQLenPdf::27                       0                       # What write queue length does an incoming req see
system.mem_ctrl.wrQLenPdf::28                       0                       # What write queue length does an incoming req see
system.mem_ctrl.wrQLenPdf::29                       0                       # What write queue length does an incoming req see
system.mem_ctrl.wrQLenPdf::30                       0                       # What write queue length does an incoming req see
system.mem_ctrl.wrQLenPdf::31                       0                       # What write queue length does an incoming req see
system.mem_ctrl.wrQLenPdf::32                       0                       # What write queue length does an incoming req see
system.mem_ctrl.wrQLenPdf::33                       0                       # What write queue length does an incoming req see
system.mem_ctrl.wrQLenPdf::34                       0                       # What write queue length does an incoming req see
system.mem_ctrl.wrQLenPdf::35                       0                       # What write queue length does an incoming req see
system.mem_ctrl.wrQLenPdf::36                       0                       # What write queue length does an incoming req see
system.mem_ctrl.wrQLenPdf::37                       0                       # What write queue length does an incoming req see
system.mem_ctrl.wrQLenPdf::38                       0                       # What write queue length does an incoming req see
system.mem_ctrl.wrQLenPdf::39                       0                       # What write queue length does an incoming req see
system.mem_ctrl.wrQLenPdf::40                       0                       # What write queue length does an incoming req see
system.mem_ctrl.wrQLenPdf::41                       0                       # What write queue length does an incoming req see
system.mem_ctrl.wrQLenPdf::42                       0                       # What write queue length does an incoming req see
system.mem_ctrl.wrQLenPdf::43                       0                       # What write queue length does an incoming req see
system.mem_ctrl.wrQLenPdf::44                       0                       # What write queue length does an incoming req see
system.mem_ctrl.wrQLenPdf::45                       0                       # What write queue length does an incoming req see
system.mem_ctrl.wrQLenPdf::46                       0                       # What write queue length does an incoming req see
system.mem_ctrl.wrQLenPdf::47                       0                       # What write queue length does an incoming req see
system.mem_ctrl.wrQLenPdf::48                       0                       # What write queue length does an incoming req see
system.mem_ctrl.wrQLenPdf::49                       0                       # What write queue length does an incoming req see
system.mem_ctrl.wrQLenPdf::50                       0                       # What write queue length does an incoming req see
system.mem_ctrl.wrQLenPdf::51                       0                       # What write queue length does an incoming req see
system.mem_ctrl.wrQLenPdf::52                       0                       # What write queue length does an incoming req see
system.mem_ctrl.wrQLenPdf::53                       0                       # What write queue length does an incoming req see
system.mem_ctrl.wrQLenPdf::54                       0                       # What write queue length does an incoming req see
system.mem_ctrl.wrQLenPdf::55                       0                       # What write queue length does an incoming req see
system.mem_ctrl.wrQLenPdf::56                       0                       # What write queue length does an incoming req see
system.mem_ctrl.wrQLenPdf::57                       0                       # What write queue length does an incoming req see
system.mem_ctrl.wrQLenPdf::58                       0                       # What write queue length does an incoming req see
system.mem_ctrl.wrQLenPdf::59                       0                       # What write queue length does an incoming req see
system.mem_ctrl.wrQLenPdf::60                       0                       # What write queue length does an incoming req see
system.mem_ctrl.wrQLenPdf::61                       0                       # What write queue length does an incoming req see
system.mem_ctrl.wrQLenPdf::62                       0                       # What write queue length does an incoming req see
system.mem_ctrl.wrQLenPdf::63                       0                       # What write queue length does an incoming req see
system.mem_ctrl.bytesPerActivate::samples         5909                       # Bytes accessed per row activation
system.mem_ctrl.bytesPerActivate::mean     101.085124                       # Bytes accessed per row activation
system.mem_ctrl.bytesPerActivate::gmean     88.044661                       # Bytes accessed per row activation
system.mem_ctrl.bytesPerActivate::stdev     78.197468                       # Bytes accessed per row activation
system.mem_ctrl.bytesPerActivate::64-127         3599     60.91%     60.91% # Bytes accessed per row activation
system.mem_ctrl.bytesPerActivate::128-191         2002     33.88%     94.79% # Bytes accessed per row activation
system.mem_ctrl.bytesPerActivate::192-255          107      1.81%     96.60% # Bytes accessed per row activation
system.mem_ctrl.bytesPerActivate::256-319           37      0.63%     97.22% # Bytes accessed per row activation
system.mem_ctrl.bytesPerActivate::320-383           37      0.63%     97.85% # Bytes accessed per row activation
system.mem_ctrl.bytesPerActivate::384-447           28      0.47%     98.32% # Bytes accessed per row activation
system.mem_ctrl.bytesPerActivate::448-511           16      0.27%     98.60% # Bytes accessed per row activation
system.mem_ctrl.bytesPerActivate::512-575           12      0.20%     98.80% # Bytes accessed per row activation
system.mem_ctrl.bytesPerActivate::576-639           12      0.20%     99.00% # Bytes accessed per row activation
system.mem_ctrl.bytesPerActivate::640-703           57      0.96%     99.97% # Bytes accessed per row activation
system.mem_ctrl.bytesPerActivate::704-767            2      0.03%    100.00% # Bytes accessed per row activation
system.mem_ctrl.bytesPerActivate::total          5909                       # Bytes accessed per row activation
system.mem_ctrl.bytesReadDRAM                  597376                       # Total number of bytes read from DRAM
system.mem_ctrl.bytesReadWrQ                        0                       # Total number of bytes read from write queue
system.mem_ctrl.bytesWritten                        0                       # Total number of bytes written to DRAM
system.mem_ctrl.bytesReadSys                   597376                       # Total read bytes from the system interface side
system.mem_ctrl.bytesWrittenSys                     0                       # Total written bytes from the system interface side
system.mem_ctrl.avgRdBW                         14.67                       # Average DRAM read bandwidth in MiByte/s
system.mem_ctrl.avgWrBW                          0.00                       # Average achieved write bandwidth in MiByte/s
system.mem_ctrl.avgRdBWSys                      14.67                       # Average system read bandwidth in MiByte/s
system.mem_ctrl.avgWrBWSys                       0.00                       # Average system write bandwidth in MiByte/s
system.mem_ctrl.peakBW                       12800.00                       # Theoretical peak bandwidth in MiByte/s
system.mem_ctrl.busUtil                          0.11                       # Data bus utilization in percentage
system.mem_ctrl.busUtilRead                      0.11                       # Data bus utilization in percentage for reads
system.mem_ctrl.busUtilWrite                     0.00                       # Data bus utilization in percentage for writes
system.mem_ctrl.totGap                    40722357000                       # Total gap between requests
system.mem_ctrl.avgGap                     4362798.05                       # Average gap between requests
system.mem_ctrl.masterReadBytes::.cpu.inst        75072                       # Per-master bytes read from memory
system.mem_ctrl.masterReadBytes::.cpu.data       522304                       # Per-master bytes read from memory
system.mem_ctrl.masterReadRate::.cpu.inst 1843373.373273089761                       # Per-master bytes read from memory rate (Bytes/sec)
system.mem_ctrl.masterReadRate::.cpu.data 12825038.447810472921                       # Per-master bytes read from memory rate (Bytes/sec)
system.mem_ctrl.masterReadAccesses::.cpu.inst         1173                       # Per-master read serviced memory accesses
system.mem_ctrl.masterReadAccesses::.cpu.data         8161                       # Per-master read serviced memory accesses
system.mem_ctrl.masterReadTotalLat::.cpu.inst     32996000                       # Per-master read total memory access latency
system.mem_ctrl.masterReadTotalLat::.cpu.data    295494000                       # Per-master read total memory access latency
system.mem_ctrl.masterReadAvgLat::.cpu.inst     28129.58                       # Per-master read average memory access latency
system.mem_ctrl.masterReadAvgLat::.cpu.data     36208.06                       # Per-master read average memory access latency
system.mem_ctrl.pageHitRate                     36.68                       # Row buffer hit rate, read and write combined
system.mem_ctrl.rank1.actEnergy              23904720                       # Energy for activate commands per rank (pJ)
system.mem_ctrl.rank1.preEnergy              12701865                       # Energy for precharge commands per rank (pJ)
system.mem_ctrl.rank1.readEnergy             32901120                       # Energy for read commands per rank (pJ)
system.mem_ctrl.rank1.writeEnergy                   0                       # Energy for write commands per rank (pJ)
system.mem_ctrl.rank1.refreshEnergy      3214567200.000000                       # Energy for refresh commands per rank (pJ)
system.mem_ctrl.rank1.actBackEnergy        7170702600                       # Energy for active background per rank (pJ)
system.mem_ctrl.rank1.preBackEnergy        9600042720                       # Energy for precharge background per rank (pJ)
system.mem_ctrl.rank1.actPowerDownEnergy            0                       # Energy for active power-down per rank (pJ)
system.mem_ctrl.rank1.prePowerDownEnergy            0                       # Energy for precharge power-down per rank (pJ)
system.mem_ctrl.rank1.selfRefreshEnergy             0                       # Energy for self refresh per rank (pJ)
system.mem_ctrl.rank1.totalEnergy         20054820225                       # Total energy per rank (pJ)
system.mem_ctrl.rank1.averagePower         492.440878                       # Core power per rank (mW)
system.mem_ctrl.rank1.totalIdleTime                 0                       # Total Idle time Per DRAM Rank
system.mem_ctrl.rank1.memoryStateTime::IDLE  24886035000                       # Time in different power states
system.mem_ctrl.rank1.memoryStateTime::REF   1359800000                       # Time in different power states
system.mem_ctrl.rank1.memoryStateTime::SREF            0                       # Time in different power states
system.mem_ctrl.rank1.memoryStateTime::PRE_PDN            0                       # Time in different power states
system.mem_ctrl.rank1.memoryStateTime::ACT  14479501000                       # Time in different power states
system.mem_ctrl.rank1.memoryStateTime::ACT_PDN            0                       # Time in different power states
system.mem_ctrl.rank0.actEnergy              18292680                       # Energy for activate commands per rank (pJ)
system.mem_ctrl.rank0.preEnergy               9722790                       # Energy for precharge commands per rank (pJ)
system.mem_ctrl.rank0.readEnergy             33743640                       # Energy for read commands per rank (pJ)
system.mem_ctrl.rank0.writeEnergy                   0                       # Energy for write commands per rank (pJ)
system.mem_ctrl.rank0.refreshEnergy      3214567200.000000                       # Energy for refresh commands per rank (pJ)
system.mem_ctrl.rank0.actBackEnergy        5200532940                       # Energy for active background per rank (pJ)
system.mem_ctrl.rank0.preBackEnergy       11259132960                       # Energy for precharge background per rank (pJ)
system.mem_ctrl.rank0.actPowerDownEnergy            0                       # Energy for active power-down per rank (pJ)
system.mem_ctrl.rank0.prePowerDownEnergy            0                       # Energy for precharge power-down per rank (pJ)
system.mem_ctrl.rank0.selfRefreshEnergy             0                       # Energy for self refresh per rank (pJ)
system.mem_ctrl.rank0.totalEnergy         19735992210                       # Total energy per rank (pJ)
system.mem_ctrl.rank0.averagePower         484.612139                       # Core power per rank (mW)
system.mem_ctrl.rank0.totalIdleTime                 0                       # Total Idle time Per DRAM Rank
system.mem_ctrl.rank0.memoryStateTime::IDLE  29216630500                       # Time in different power states
system.mem_ctrl.rank0.memoryStateTime::REF   1359800000                       # Time in different power states
system.mem_ctrl.rank0.memoryStateTime::SREF            0                       # Time in different power states
system.mem_ctrl.rank0.memoryStateTime::PRE_PDN            0                       # Time in different power states
system.mem_ctrl.rank0.memoryStateTime::ACT  10148905500                       # Time in different power states
system.mem_ctrl.rank0.memoryStateTime::ACT_PDN            0                       # Time in different power states
system.mem_ctrl.power_state.pwrStateResidencyTicks::UNDEFINED  40725336000                       # Cumulative time (in ticks) in various power states
system.l2cache.demand_hits::.cpu.inst             146                       # number of demand (read+write) hits
system.l2cache.demand_hits::.cpu.data            6882                       # number of demand (read+write) hits
system.l2cache.demand_hits::total                7028                       # number of demand (read+write) hits
system.l2cache.overall_hits::.cpu.inst            146                       # number of overall hits
system.l2cache.overall_hits::.cpu.data           6882                       # number of overall hits
system.l2cache.overall_hits::total               7028                       # number of overall hits
system.l2cache.demand_misses::.cpu.inst          1242                       # number of demand (read+write) misses
system.l2cache.demand_misses::.cpu.data          8430                       # number of demand (read+write) misses
system.l2cache.demand_misses::total              9672                       # number of demand (read+write) misses
system.l2cache.overall_misses::.cpu.inst         1242                       # number of overall misses
system.l2cache.overall_misses::.cpu.data         8430                       # number of overall misses
system.l2cache.overall_misses::total             9672                       # number of overall misses
system.l2cache.demand_miss_latency::.cpu.inst    856609000                       # number of demand (read+write) miss cycles
system.l2cache.demand_miss_latency::.cpu.data   5982084000                       # number of demand (read+write) miss cycles
system.l2cache.demand_miss_latency::total   6838693000                       # number of demand (read+write) miss cycles
system.l2cache.overall_miss_latency::.cpu.inst    856609000                       # number of overall miss cycles
system.l2cache.overall_miss_latency::.cpu.data   5982084000                       # number of overall miss cycles
system.l2cache.overall_miss_latency::total   6838693000                       # number of overall miss cycles
system.l2cache.demand_accesses::.cpu.inst         1388                       # number of demand (read+write) accesses
system.l2cache.demand_accesses::.cpu.data        15312                       # number of demand (read+write) accesses
system.l2cache.demand_accesses::total           16700                       # number of demand (read+write) accesses
system.l2cache.overall_accesses::.cpu.inst         1388                       # number of overall (read+write) accesses
system.l2cache.overall_accesses::.cpu.data        15312                       # number of overall (read+write) accesses
system.l2cache.overall_accesses::total          16700                       # number of overall (read+write) accesses
system.l2cache.demand_miss_rate::.cpu.inst     0.894813                       # miss rate for demand accesses
system.l2cache.demand_miss_rate::.cpu.data     0.550549                       # miss rate for demand accesses
system.l2cache.demand_miss_rate::total       0.579162                       # miss rate for demand accesses
system.l2cache.overall_miss_rate::.cpu.inst     0.894813                       # miss rate for overall accesses
system.l2cache.overall_miss_rate::.cpu.data     0.550549                       # miss rate for overall accesses
system.l2cache.overall_miss_rate::total      0.579162                       # miss rate for overall accesses
system.l2cache.demand_avg_miss_latency::.cpu.inst 689701.288245                       # average overall miss latency
system.l2cache.demand_avg_miss_latency::.cpu.data 709618.505338                       # average overall miss latency
system.l2cache.demand_avg_miss_latency::total 707060.897436                       # average overall miss latency
system.l2cache.overall_avg_miss_latency::.cpu.inst 689701.288245                       # average overall miss latency
system.l2cache.overall_avg_miss_latency::.cpu.data 709618.505338                       # average overall miss latency
system.l2cache.overall_avg_miss_latency::total 707060.897436                       # average overall miss latency
system.l2cache.blocked_cycles::no_mshrs             0                       # number of cycles access was blocked
system.l2cache.blocked_cycles::no_targets            0                       # number of cycles access was blocked
system.l2cache.blocked::no_mshrs                    0                       # number of cycles access was blocked
system.l2cache.blocked::no_targets                  0                       # number of cycles access was blocked
system.l2cache.avg_blocked_cycles::no_mshrs          nan                       # average number of cycles each access was blocked
system.l2cache.avg_blocked_cycles::no_targets          nan                       # average number of cycles each access was blocked
system.l2cache.writebacks::.writebacks           3907                       # number of writebacks
system.l2cache.writebacks::total                 3907                       # number of writebacks
system.l2cache.demand_mshr_misses::.cpu.inst         1242                       # number of demand (read+write) MSHR misses
system.l2cache.demand_mshr_misses::.cpu.data         8430                       # number of demand (read+write) MSHR misses
system.l2cache.demand_mshr_misses::total         9672                       # number of demand (read+write) MSHR misses
system.l2cache.overall_mshr_misses::.cpu.inst         1242                       # number of overall MSHR misses
system.l2cache.overall_mshr_misses::.cpu.data         8430                       # number of overall MSHR misses
system.l2cache.overall_mshr_misses::total         9672                       # number of overall MSHR misses
system.l2cache.demand_mshr_miss_latency::.cpu.inst    831769000                       # number of demand (read+write) MSHR miss cycles
system.l2cache.demand_mshr_miss_latency::.cpu.data   5813484000                       # number of demand (read+write) MSHR miss cycles
system.l2cache.demand_mshr_miss_latency::total   6645253000                       # number of demand (read+write) MSHR miss cycles
system.l2cache.overall_mshr_miss_latency::.cpu.inst    831769000                       # number of overall MSHR miss cycles
system.l2cache.overall_mshr_miss_latency::.cpu.data   5813484000                       # number of overall MSHR miss cycles
system.l2cache.overall_mshr_miss_latency::total   6645253000                       # number of overall MSHR miss cycles
system.l2cache.demand_mshr_miss_rate::.cpu.inst     0.894813                       # mshr miss rate for demand accesses
system.l2cache.demand_mshr_miss_rate::.cpu.data     0.550549                       # mshr miss rate for demand accesses
system.l2cache.demand_mshr_miss_rate::total     0.579162                       # mshr miss rate for demand accesses
system.l2cache.overall_mshr_miss_rate::.cpu.inst     0.894813                       # mshr miss rate for overall accesses
system.l2cache.overall_mshr_miss_rate::.cpu.data     0.550549                       # mshr miss rate for overall accesses
system.l2cache.overall_mshr_miss_rate::total     0.579162                       # mshr miss rate for overall accesses
system.l2cache.demand_avg_mshr_miss_latency::.cpu.inst 669701.288245                       # average overall mshr miss latency
system.l2cache.demand_avg_mshr_miss_latency::.cpu.data 689618.505338                       # average overall mshr miss latency
system.l2cache.demand_avg_mshr_miss_latency::total 687060.897436                       # average overall mshr miss latency
system.l2cache.overall_avg_mshr_miss_latency::.cpu.inst 669701.288245                       # average overall mshr miss latency
system.l2cache.overall_avg_mshr_miss_latency::.cpu.data 689618.505338                       # average overall mshr miss latency
system.l2cache.overall_avg_mshr_miss_latency::total 687060.897436                       # average overall mshr miss latency
system.l2cache.replacements                      6202                       # number of replacements
system.l2cache.WritebackDirty_hits::.writebacks        12571                       # number of WritebackDirty hits
system.l2cache.WritebackDirty_hits::total        12571                       # number of WritebackDirty hits
system.l2cache.WritebackDirty_accesses::.writebacks        12571                       # number of WritebackDirty accesses(hits+misses)
system.l2cache.WritebackDirty_accesses::total        12571                       # number of WritebackDirty accesses(hits+misses)
system.l2cache.CleanEvict_mshr_misses::.writebacks          452                       # number of CleanEvict MSHR misses
system.l2cache.CleanEvict_mshr_misses::total          452                       # number of CleanEvict MSHR misses
system.l2cache.CleanEvict_mshr_miss_rate::.writebacks          inf                       # mshr miss rate for CleanEvict accesses
system.l2cache.CleanEvict_mshr_miss_rate::total          inf                       # mshr miss rate for CleanEvict accesses
system.l2cache.UpgradeReq_hits::.cpu.data            2                       # number of UpgradeReq hits
system.l2cache.UpgradeReq_hits::total               2                       # number of UpgradeReq hits
system.l2cache.UpgradeReq_misses::.cpu.data            4                       # number of UpgradeReq misses
system.l2cache.UpgradeReq_misses::total             4                       # number of UpgradeReq misses
system.l2cache.UpgradeReq_accesses::.cpu.data            6                       # number of UpgradeReq accesses(hits+misses)
system.l2cache.UpgradeReq_accesses::total            6                       # number of UpgradeReq accesses(hits+misses)
system.l2cache.UpgradeReq_miss_rate::.cpu.data     0.666667                       # miss rate for UpgradeReq accesses
system.l2cache.UpgradeReq_miss_rate::total     0.666667                       # miss rate for UpgradeReq accesses
system.l2cache.UpgradeReq_mshr_misses::.cpu.data            4                       # number of UpgradeReq MSHR misses
system.l2cache.UpgradeReq_mshr_misses::total            4                       # number of UpgradeReq MSHR misses
system.l2cache.UpgradeReq_mshr_miss_latency::.cpu.data       288000                       # number of UpgradeReq MSHR miss cycles
system.l2cache.UpgradeReq_mshr_miss_latency::total       288000                       # number of UpgradeReq MSHR miss cycles
system.l2cache.UpgradeReq_mshr_miss_rate::.cpu.data     0.666667                       # mshr miss rate for UpgradeReq accesses
system.l2cache.UpgradeReq_mshr_miss_rate::total     0.666667                       # mshr miss rate for UpgradeReq accesses
system.l2cache.UpgradeReq_avg_mshr_miss_latency::.cpu.data        72000                       # average UpgradeReq mshr miss latency
system.l2cache.UpgradeReq_avg_mshr_miss_latency::total        72000                       # average UpgradeReq mshr miss latency
system.l2cache.ReadExReq_hits::.cpu.data         3714                       # number of ReadExReq hits
system.l2cache.ReadExReq_hits::total             3714                       # number of ReadExReq hits
system.l2cache.ReadExReq_misses::.cpu.data         7941                       # number of ReadExReq misses
system.l2cache.ReadExReq_misses::total           7941                       # number of ReadExReq misses
system.l2cache.ReadExReq_miss_latency::.cpu.data   5778883000                       # number of ReadExReq miss cycles
system.l2cache.ReadExReq_miss_latency::total   5778883000                       # number of ReadExReq miss cycles
system.l2cache.ReadExReq_accesses::.cpu.data        11655                       # number of ReadExReq accesses(hits+misses)
system.l2cache.ReadExReq_accesses::total        11655                       # number of ReadExReq accesses(hits+misses)
system.l2cache.ReadExReq_miss_rate::.cpu.data     0.681338                       # miss rate for ReadExReq accesses
system.l2cache.ReadExReq_miss_rate::total     0.681338                       # miss rate for ReadExReq accesses
system.l2cache.ReadExReq_avg_miss_latency::.cpu.data 727727.364312                       # average ReadExReq miss latency
system.l2cache.ReadExReq_avg_miss_latency::total 727727.364312                       # average ReadExReq miss latency
system.l2cache.ReadExReq_mshr_misses::.cpu.data         7941                       # number of ReadExReq MSHR misses
system.l2cache.ReadExReq_mshr_misses::total         7941                       # number of ReadExReq MSHR misses
system.l2cache.ReadExReq_mshr_miss_latency::.cpu.data   5620063000                       # number of ReadExReq MSHR miss cycles
system.l2cache.ReadExReq_mshr_miss_latency::total   5620063000                       # number of ReadExReq MSHR miss cycles
system.l2cache.ReadExReq_mshr_miss_rate::.cpu.data     0.681338                       # mshr miss rate for ReadExReq accesses
system.l2cache.ReadExReq_mshr_miss_rate::total     0.681338                       # mshr miss rate for ReadExReq accesses
system.l2cache.ReadExReq_avg_mshr_miss_latency::.cpu.data 707727.364312                       # average ReadExReq mshr miss latency
system.l2cache.ReadExReq_avg_mshr_miss_latency::total 707727.364312                       # average ReadExReq mshr miss latency
system.l2cache.ReadSharedReq_hits::.cpu.inst          146                       # number of ReadSharedReq hits
system.l2cache.ReadSharedReq_hits::.cpu.data         3168                       # number of ReadSharedReq hits
system.l2cache.ReadSharedReq_hits::total         3314                       # number of ReadSharedReq hits
system.l2cache.ReadSharedReq_misses::.cpu.inst         1242                       # number of ReadSharedReq misses
system.l2cache.ReadSharedReq_misses::.cpu.data          489                       # number of ReadSharedReq misses
system.l2cache.ReadSharedReq_misses::total         1731                       # number of ReadSharedReq misses
system.l2cache.ReadSharedReq_miss_latency::.cpu.inst    856609000                       # number of ReadSharedReq miss cycles
system.l2cache.ReadSharedReq_miss_latency::.cpu.data    203201000                       # number of ReadSharedReq miss cycles
system.l2cache.ReadSharedReq_miss_latency::total   1059810000                       # number of ReadSharedReq miss cycles
system.l2cache.ReadSharedReq_accesses::.cpu.inst         1388                       # number of ReadSharedReq accesses(hits+misses)
system.l2cache.ReadSharedReq_accesses::.cpu.data         3657                       # number of ReadSharedReq accesses(hits+misses)
system.l2cache.ReadSharedReq_accesses::total         5045                       # number of ReadSharedReq accesses(hits+misses)
system.l2cache.ReadSharedReq_miss_rate::.cpu.inst     0.894813                       # miss rate for ReadSharedReq accesses
system.l2cache.ReadSharedReq_miss_rate::.cpu.data     0.133716                       # miss rate for ReadSharedReq accesses
system.l2cache.ReadSharedReq_miss_rate::total     0.343112                       # miss rate for ReadSharedReq accesses
system.l2cache.ReadSharedReq_avg_miss_latency::.cpu.inst 689701.288245                       # average ReadSharedReq miss latency
system.l2cache.ReadSharedReq_avg_miss_latency::.cpu.data 415543.967280                       # average ReadSharedReq miss latency
system.l2cache.ReadSharedReq_avg_miss_latency::total 612253.032929                       # average ReadSharedReq miss latency
system.l2cache.ReadSharedReq_mshr_misses::.cpu.inst         1242                       # number of ReadSharedReq MSHR misses
system.l2cache.ReadSharedReq_mshr_misses::.cpu.data          489                       # number of ReadSharedReq MSHR misses
system.l2cache.ReadSharedReq_mshr_misses::total         1731                       # number of ReadSharedReq MSHR misses
system.l2cache.ReadSharedReq_mshr_miss_latency::.cpu.inst    831769000                       # number of ReadSharedReq MSHR miss cycles
system.l2cache.ReadSharedReq_mshr_miss_latency::.cpu.data    193421000                       # number of ReadSharedReq MSHR miss cycles
system.l2cache.ReadSharedReq_mshr_miss_latency::total   1025190000                       # number of ReadSharedReq MSHR miss cycles
system.l2cache.ReadSharedReq_mshr_miss_rate::.cpu.inst     0.894813                       # mshr miss rate for ReadSharedReq accesses
system.l2cache.ReadSharedReq_mshr_miss_rate::.cpu.data     0.133716                       # mshr miss rate for ReadSharedReq accesses
system.l2cache.ReadSharedReq_mshr_miss_rate::total     0.343112                       # mshr miss rate for ReadSharedReq accesses
system.l2cache.ReadSharedReq_avg_mshr_miss_latency::.cpu.inst 669701.288245                       # average ReadSharedReq mshr miss latency
system.l2cache.ReadSharedReq_avg_mshr_miss_latency::.cpu.data 395543.967280                       # average ReadSharedReq mshr miss latency
system.l2cache.ReadSharedReq_avg_mshr_miss_latency::total 592253.032929                       # average ReadSharedReq mshr miss latency
system.l2cache.power_state.pwrStateResidencyTicks::UNDEFINED  40725336000                       # Cumulative time (in ticks) in various power states
system.l2cache.tags.tagsinuse             3366.790374                       # Cycle average of tags in use
system.l2cache.tags.total_refs                  31976                       # Total number of references to valid blocks.
system.l2cache.tags.sampled_refs                10298                       # Sample count of references to valid blocks.
system.l2cache.tags.avg_refs                 3.105069                       # Average number of references to valid blocks.
system.l2cache.tags.warmup_cycle               708000                       # Cycle when the warmup percentage was hit.
system.l2cache.tags.occ_blocks::.writebacks    54.324737                       # Average occupied blocks per requestor
system.l2cache.tags.occ_blocks::.cpu.inst   200.022049                       # Average occupied blocks per requestor
system.l2cache.tags.occ_blocks::.cpu.data  3112.443588                       # Average occupied blocks per requestor
system.l2cache.tags.occ_percent::.writebacks     0.013263                       # Average percentage of cache occupancy
system.l2cache.tags.occ_percent::.cpu.inst     0.048834                       # Average percentage of cache occupancy
system.l2cache.tags.occ_percent::.cpu.data     0.759874                       # Average percentage of cache occupancy
system.l2cache.tags.occ_percent::total       0.821970                       # Average percentage of cache occupancy
system.l2cache.tags.occ_task_id_blocks::1024         4096                       # Occupied blocks per task id
system.l2cache.tags.age_task_id_blocks_1024::0            2                       # Occupied blocks per task id
system.l2cache.tags.age_task_id_blocks_1024::1           16                       # Occupied blocks per task id
system.l2cache.tags.age_task_id_blocks_1024::2          164                       # Occupied blocks per task id
system.l2cache.tags.age_task_id_blocks_1024::3         1617                       # Occupied blocks per task id
system.l2cache.tags.age_task_id_blocks_1024::4         2297                       # Occupied blocks per task id
system.l2cache.tags.occ_task_id_percent::1024            1                       # Percentage of cache occupancy per task id
system.l2cache.tags.tag_accesses                42730                       # Number of tag accesses
system.l2cache.tags.data_accesses               42730                       # Number of data accesses
system.l2cache.tags.power_state.pwrStateResidencyTicks::UNDEFINED  40725336000                       # Cumulative time (in ticks) in various power states
system.clk_domain.clock                          1000                       # Clock period in ticks
system.clk_domain.voltage_domain.voltage            1                       # Voltage in Volts
system.l3Dram.demand_hits::.cpu.inst               47                       # number of demand (read+write) hits
system.l3Dram.demand_hits::.cpu.data              253                       # number of demand (read+write) hits
system.l3Dram.demand_hits::total                  300                       # number of demand (read+write) hits
system.l3Dram.overall_hits::.cpu.inst              47                       # number of overall hits
system.l3Dram.overall_hits::.cpu.data             253                       # number of overall hits
system.l3Dram.overall_hits::total                 300                       # number of overall hits
system.l3Dram.demand_misses::.cpu.inst           1195                       # number of demand (read+write) misses
system.l3Dram.demand_misses::.cpu.data           8177                       # number of demand (read+write) misses
system.l3Dram.demand_misses::total               9372                       # number of demand (read+write) misses
system.l3Dram.overall_misses::.cpu.inst          1195                       # number of overall misses
system.l3Dram.overall_misses::.cpu.data          8177                       # number of overall misses
system.l3Dram.overall_misses::total              9372                       # number of overall misses
system.l3Dram.demand_miss_latency::.cpu.inst    803290000                       # number of demand (read+write) miss cycles
system.l3Dram.demand_miss_latency::.cpu.data   5623551000                       # number of demand (read+write) miss cycles
system.l3Dram.demand_miss_latency::total   6426841000                       # number of demand (read+write) miss cycles
[...]
system.DynamicCache.overall_accesses::total         9372                       # number of overall (read+write) accesses
system.DynamicCache.demand_miss_rate::.cpu.inst     0.981590                       # miss rate for demand accesses
system.DynamicCache.demand_miss_rate::.cpu.data     0.998043                       # miss rate for demand accesses
system.DynamicCache.demand_miss_rate::total     0.995945                       # miss rate for demand accesses
system.DynamicCache.overall_miss_rate::.cpu.inst     0.981590                       # miss rate for overall accesses
system.DynamicCache.overall_miss_rate::.cpu.data     0.998043                       # miss rate for overall accesses
system.DynamicCache.overall_miss_rate::total     0.995945                       # miss rate for overall accesses
system.DynamicCache.demand_avg_miss_latency::.cpu.inst 578465.473146                       # average overall miss latency
system.DynamicCache.demand_avg_miss_latency::.cpu.data 586621.369930                       # average overall miss latency
system.DynamicCache.demand_avg_miss_latency::total 585596.421684                       # average overall miss latency
system.DynamicCache.overall_avg_miss_latency::.cpu.inst 578465.473146                       # average overall miss latency
system.DynamicCache.overall_avg_miss_latency::.cpu.data 586621.369930                       # average overall miss latency
system.DynamicCache.overall_avg_miss_latency::total 585596.421684                       # average overall miss latency
system.DynamicCache.blocked_cycles::no_mshrs            0                       # number of cycles access was blocked
system.DynamicCache.blocked_cycles::no_targets            0                       # number of cycles access was blocked
system.DynamicCache.blocked::no_mshrs               0                       # number of cycles access was blocked
system.DynamicCache.blocked::no_targets             0                       # number of cycles access was blocked
system.DynamicCache.avg_blocked_cycles::no_mshrs          nan                       # average number of cycles each access was blocked
system.DynamicCache.avg_blocked_cycles::no_targets          nan                       # average number of cycles each access was blocked
system.DynamicCache.demand_mshr_misses::.cpu.inst         1173                       # number of demand (read+write) MSHR misses
system.DynamicCache.demand_mshr_misses::.cpu.data         8161                       # number of demand (read+write) MSHR misses
system.DynamicCache.demand_mshr_misses::total         9334                       # number of demand (read+write) MSHR misses
system.DynamicCache.overall_mshr_misses::.cpu.inst         1173                       # number of overall MSHR misses
system.DynamicCache.overall_mshr_misses::.cpu.data         8161                       # number of overall MSHR misses
system.DynamicCache.overall_mshr_misses::total         9334                       # number of overall MSHR misses
system.DynamicCache.demand_mshr_miss_latency::.cpu.inst    526050000                       # number of demand (read+write) MSHR miss cycles
system.DynamicCache.demand_mshr_miss_latency::.cpu.data   3726487000                       # number of demand (read+write) MSHR miss cycles
system.DynamicCache.demand_mshr_miss_latency::total   4252537000                       # number of demand (read+write) MSHR miss cycles
system.DynamicCache.overall_mshr_miss_latency::.cpu.inst    526050000                       # number of overall MSHR miss cycles
system.DynamicCache.overall_mshr_miss_latency::.cpu.data   3726487000                       # number of overall MSHR miss cycles
system.DynamicCache.overall_mshr_miss_latency::total   4252537000                       # number of overall MSHR miss cycles
system.DynamicCache.demand_mshr_miss_rate::.cpu.inst     0.981590                       # mshr miss rate for demand accesses
system.DynamicCache.demand_mshr_miss_rate::.cpu.data     0.998043                       # mshr miss rate for demand accesses
system.DynamicCache.demand_mshr_miss_rate::total     0.995945                       # mshr miss rate for demand accesses
system.DynamicCache.overall_mshr_miss_rate::.cpu.inst     0.981590                       # mshr miss rate for overall accesses
system.DynamicCache.overall_mshr_miss_rate::.cpu.data     0.998043                       # mshr miss rate for overall accesses
system.DynamicCache.overall_mshr_miss_rate::total     0.995945                       # mshr miss rate for overall accesses
system.DynamicCache.demand_avg_mshr_miss_latency::.cpu.inst 448465.473146                       # average overall mshr miss latency
system.DynamicCache.demand_avg_mshr_miss_latency::.cpu.data 456621.369930                       # average overall mshr miss latency
system.DynamicCache.demand_avg_mshr_miss_latency::total 455596.421684                       # average overall mshr miss latency
system.DynamicCache.overall_avg_mshr_miss_latency::.cpu.inst 448465.473146                       # average overall mshr miss latency
system.DynamicCache.overall_avg_mshr_miss_latency::.cpu.data 456621.369930                       # average overall mshr miss latency
system.DynamicCache.overall_avg_mshr_miss_latency::total 455596.421684                       # average overall mshr miss latency
system.DynamicCache.replacements                  307                       # number of replacements
system.DynamicCache.WritebackDirty_hits::.writebacks          338                       # number of WritebackDirty hits
system.DynamicCache.WritebackDirty_hits::total          338                       # number of WritebackDirty hits
system.DynamicCache.WritebackDirty_accesses::.writebacks          338                       # number of WritebackDirty accesses(hits+misses)
system.DynamicCache.WritebackDirty_accesses::total          338                       # number of WritebackDirty accesses(hits+misses)
system.DynamicCache.CleanEvict_mshr_misses::.writebacks          120                       # number of CleanEvict MSHR misses
system.DynamicCache.CleanEvict_mshr_misses::total          120                       # number of CleanEvict MSHR misses
system.DynamicCache.CleanEvict_mshr_miss_rate::.writebacks          inf                       # mshr miss rate for CleanEvict accesses
system.DynamicCache.CleanEvict_mshr_miss_rate::total          inf                       # mshr miss rate for CleanEvict accesses
system.DynamicCache.ReadExReq_misses::.cpu.data         7915                       # number of ReadExReq misses
system.DynamicCache.ReadExReq_misses::total         7915                       # number of ReadExReq misses
system.DynamicCache.ReadExReq_miss_latency::.cpu.data   4644646000                       # number of ReadExReq miss cycles
system.DynamicCache.ReadExReq_miss_latency::total   4644646000                       # number of ReadExReq miss cycles
system.DynamicCache.ReadExReq_accesses::.cpu.data         7915                       # number of ReadExReq accesses(hits+misses)
system.DynamicCache.ReadExReq_accesses::total         7915                       # number of ReadExReq accesses(hits+misses)
system.DynamicCache.ReadExReq_miss_rate::.cpu.data            1                       # miss rate for ReadExReq accesses
system.DynamicCache.ReadExReq_miss_rate::total            1                       # miss rate for ReadExReq accesses
system.DynamicCache.ReadExReq_avg_miss_latency::.cpu.data 586815.666456                       # average ReadExReq miss latency
system.DynamicCache.ReadExReq_avg_miss_latency::total 586815.666456                       # average ReadExReq miss latency
system.DynamicCache.ReadExReq_mshr_misses::.cpu.data         7915                       # number of ReadExReq MSHR misses
system.DynamicCache.ReadExReq_mshr_misses::total         7915                       # number of ReadExReq MSHR misses
system.DynamicCache.ReadExReq_mshr_miss_latency::.cpu.data   3615696000                       # number of ReadExReq MSHR miss cycles
system.DynamicCache.ReadExReq_mshr_miss_latency::total   3615696000                       # number of ReadExReq MSHR miss cycles
system.DynamicCache.ReadExReq_mshr_miss_rate::.cpu.data            1                       # mshr miss rate for ReadExReq accesses
system.DynamicCache.ReadExReq_mshr_miss_rate::total            1                       # mshr miss rate for ReadExReq accesses
system.DynamicCache.ReadExReq_avg_mshr_miss_latency::.cpu.data 456815.666456                       # average ReadExReq mshr miss latency
system.DynamicCache.ReadExReq_avg_mshr_miss_latency::total 456815.666456                       # average ReadExReq mshr miss latency
system.DynamicCache.ReadSharedReq_hits::.cpu.inst           22                       # number of ReadSharedReq hits
system.DynamicCache.ReadSharedReq_hits::.cpu.data           16                       # number of ReadSharedReq hits
system.DynamicCache.ReadSharedReq_hits::total           38                       # number of ReadSharedReq hits
system.DynamicCache.ReadSharedReq_misses::.cpu.inst         1173                       # number of ReadSharedReq misses
system.DynamicCache.ReadSharedReq_misses::.cpu.data          246                       # number of ReadSharedReq misses
system.DynamicCache.ReadSharedReq_misses::total         1419                       # number of ReadSharedReq misses
system.DynamicCache.ReadSharedReq_miss_latency::.cpu.inst    678540000                       # number of ReadSharedReq miss cycles
system.DynamicCache.ReadSharedReq_miss_latency::.cpu.data    142771000                       # number of ReadSharedReq miss cycles
system.DynamicCache.ReadSharedReq_miss_latency::total    821311000                       # number of ReadSharedReq miss cycles
system.DynamicCache.ReadSharedReq_accesses::.cpu.inst         1195                       # number of ReadSharedReq accesses(hits+misses)
system.DynamicCache.ReadSharedReq_accesses::.cpu.data          262                       # number of ReadSharedReq accesses(hits+misses)
system.DynamicCache.ReadSharedReq_accesses::total         1457                       # number of ReadSharedReq accesses(hits+misses)
system.DynamicCache.ReadSharedReq_miss_rate::.cpu.inst     0.981590                       # miss rate for ReadSharedReq accesses
system.DynamicCache.ReadSharedReq_miss_rate::.cpu.data     0.938931                       # miss rate for ReadSharedReq accesses
system.DynamicCache.ReadSharedReq_miss_rate::total     0.973919                       # miss rate for ReadSharedReq accesses
system.DynamicCache.ReadSharedReq_avg_miss_latency::.cpu.inst 578465.473146                       # average ReadSharedReq miss latency
system.DynamicCache.ReadSharedReq_avg_miss_latency::.cpu.data 580369.918699                       # average ReadSharedReq miss latency
system.DynamicCache.ReadSharedReq_avg_miss_latency::total 578795.630726                       # average ReadSharedReq miss latency
system.DynamicCache.ReadSharedReq_mshr_misses::.cpu.inst         1173                       # number of ReadSharedReq MSHR misses
system.DynamicCache.ReadSharedReq_mshr_misses::.cpu.data          246                       # number of ReadSharedReq MSHR misses
system.DynamicCache.ReadSharedReq_mshr_misses::total         1419                       # number of ReadSharedReq MSHR misses
system.DynamicCache.ReadSharedReq_mshr_miss_latency::.cpu.inst    526050000                       # number of ReadSharedReq MSHR miss cycles
system.DynamicCache.ReadSharedReq_mshr_miss_latency::.cpu.data    110791000                       # number of ReadSharedReq MSHR miss cycles
system.DynamicCache.ReadSharedReq_mshr_miss_latency::total    636841000                       # number of ReadSharedReq MSHR miss cycles
system.DynamicCache.ReadSharedReq_mshr_miss_rate::.cpu.inst     0.981590                       # mshr miss rate for ReadSharedReq accesses
system.DynamicCache.ReadSharedReq_mshr_miss_rate::.cpu.data     0.938931                       # mshr miss rate for ReadSharedReq accesses
system.DynamicCache.ReadSharedReq_mshr_miss_rate::total     0.973919                       # mshr miss rate for ReadSharedReq accesses
system.DynamicCache.ReadSharedReq_avg_mshr_miss_latency::.cpu.inst 448465.473146                       # average ReadSharedReq mshr miss latency
system.DynamicCache.ReadSharedReq_avg_mshr_miss_latency::.cpu.data 450369.918699                       # average ReadSharedReq mshr miss latency
system.DynamicCache.ReadSharedReq_avg_mshr_miss_latency::total 448795.630726                       # average ReadSharedReq mshr miss latency
system.DynamicCache.power_state.pwrStateResidencyTicks::UNDEFINED  40725336000                       # Cumulative time (in ticks) in various power states
system.DynamicCache.tags.tagsinuse        5431.567463                       # Cycle average of tags in use
system.DynamicCache.tags.total_refs             10497                       # Total number of references to valid blocks.
system.DynamicCache.tags.sampled_refs            9402                       # Sample count of references to valid blocks.
system.DynamicCache.tags.avg_refs            1.116465                       # Average number of references to valid blocks.
system.DynamicCache.tags.warmup_cycle          527000                       # Cycle when the warmup percentage was hit.
system.DynamicCache.tags.occ_blocks::.writebacks     9.851192                       # Average occupied blocks per requestor
system.DynamicCache.tags.occ_blocks::.cpu.inst  1044.891290                       # Average occupied blocks per requestor
system.DynamicCache.tags.occ_blocks::.cpu.data  4376.824981                       # Average occupied blocks per requestor
system.DynamicCache.tags.occ_percent::.writebacks     0.001203                       # Average percentage of cache occupancy
system.DynamicCache.tags.occ_percent::.cpu.inst     0.127550                       # Average percentage of cache occupancy
system.DynamicCache.tags.occ_percent::.cpu.data     0.534280                       # Average percentage of cache occupancy
system.DynamicCache.tags.occ_percent::total     0.663033                       # Average percentage of cache occupancy
system.DynamicCache.tags.occ_task_id_blocks::1024         9095                       # Occupied blocks per task id
system.DynamicCache.tags.age_task_id_blocks_1024::0            2                       # Occupied blocks per task id
system.DynamicCache.tags.age_task_id_blocks_1024::1           17                       # Occupied blocks per task id
system.DynamicCache.tags.age_task_id_blocks_1024::2          179                       # Occupied blocks per task id
system.DynamicCache.tags.age_task_id_blocks_1024::3         1667                       # Occupied blocks per task id
system.DynamicCache.tags.age_task_id_blocks_1024::4         7230                       # Occupied blocks per task id
system.DynamicCache.tags.occ_task_id_percent::1024     1.110229                       # Percentage of cache occupancy per task id
system.DynamicCache.tags.tag_accesses           20019                       # Number of tag accesses
system.DynamicCache.tags.data_accesses          20019                       # Number of data accesses
system.DynamicCache.tags.power_state.pwrStateResidencyTicks::UNDEFINED  40725336000                       # Cumulative time (in ticks) in various power states
system.l2bar.trans_dist::ReadResp                5045                       # Transaction distribution
system.l2bar.trans_dist::WritebackDirty         16816                       # Transaction distribution
system.l2bar.trans_dist::CleanEvict              7332                       # Transaction distribution
system.l2bar.trans_dist::UpgradeReq                 6                       # Transaction distribution
system.l2bar.trans_dist::UpgradeResp                6                       # Transaction distribution
system.l2bar.trans_dist::ReadExReq              11655                       # Transaction distribution
system.l2bar.trans_dist::ReadExResp             11655                       # Transaction distribution
system.l2bar.trans_dist::ReadSharedReq           5045                       # Transaction distribution
system.l2bar.pkt_count_system.dcache.mem_side::system.l2cache.cpu_side        45436                       # Packet count per connected master and slave (bytes)
system.l2bar.pkt_count_system.icache.mem_side::system.l2cache.cpu_side         3703                       # Packet count per connected master and slave (bytes)
system.l2bar.pkt_count::total                   49139                       # Packet count per connected master and slave (bytes)
system.l2bar.pkt_size_system.dcache.mem_side::system.l2cache.cpu_side      1784512                       # Cumulative packet size per connected master and slave (bytes)
system.l2bar.pkt_size_system.icache.mem_side::system.l2cache.cpu_side        88832                       # Cumulative packet size per connected master and slave (bytes)
system.l2bar.pkt_size::total                  1873344                       # Cumulative packet size per connected master and slave (bytes)
system.l2bar.snoops                              8421                       # Total snoops (count)
system.l2bar.snoopTraffic                      271680                       # Total snoop traffic (bytes)
system.l2bar.snoop_fanout::samples              25127                       # Request fanout histogram
system.l2bar.snoop_fanout::mean              0.097266                       # Request fanout histogram
system.l2bar.snoop_fanout::stdev             0.296325                       # Request fanout histogram
system.l2bar.snoop_fanout::underflows               0      0.00%      0.00% # Request fanout histogram
system.l2bar.snoop_fanout::0                    22683     90.27%     90.27% # Request fanout histogram
system.l2bar.snoop_fanout::1                     2444      9.73%    100.00% # Request fanout histogram
system.l2bar.snoop_fanout::2                        0      0.00%    100.00% # Request fanout histogram
system.l2bar.snoop_fanout::overflows                0      0.00%    100.00% # Request fanout histogram
system.l2bar.snoop_fanout::min_value                0                       # Request fanout histogram
system.l2bar.snoop_fanout::max_value                1                       # Request fanout histogram
system.l2bar.snoop_fanout::total                25127                       # Request fanout histogram
system.l2bar.reqLayer0.occupancy             57575000                       # Layer occupancy (ticks)
system.l2bar.reqLayer0.utilization                0.1                       # Layer utilization (%)
system.l2bar.respLayer1.occupancy             4164000                       # Layer occupancy (ticks)
system.l2bar.respLayer1.utilization               0.0                       # Layer utilization (%)
system.l2bar.respLayer0.occupancy            45942000                       # Layer occupancy (ticks)
system.l2bar.respLayer0.utilization               0.1                       # Layer utilization (%)
system.l2bar.power_state.pwrStateResidencyTicks::UNDEFINED  40725336000                       # Cumulative time (in ticks) in various power states
system.cpu.dtb.walker.power_state.pwrStateResidencyTicks::UNDEFINED  40725336000                       # Cumulative time (in ticks) in various power states
system.cpu.interrupts.clk_domain.clock          16000                       # Clock period in ticks
system.cpu.itb.walker.power_state.pwrStateResidencyTicks::UNDEFINED  40725336000                       # Cumulative time (in ticks) in various power states
system.cpu.power_state.numTransitions               1                       # Number of power state transitions
system.cpu.power_state.pwrStateResidencyTicks::ON  40725336000                       # Cumulative time (in ticks) in various power states

---------- End Simulation Statistics   ----------
