
---------- Begin Simulation Statistics ----------
final_tick                               420315539000                       # Number of ticks from beginning of simulation (restored from checkpoints and never reset)
host_inst_rate                                 160444                       # Simulator instruction rate (inst/s)
host_mem_usage                                 930652                       # Number of bytes of host memory used
host_op_rate                                   299979                       # Simulator op (including micro ops) rate (op/s)
host_seconds                                    31.16                       # Real time elapsed on the host
host_tick_rate                            13487398715                       # Simulator tick rate (ticks/s)
sim_freq                                 1000000000000                       # Frequency of simulated ticks
sim_insts                                     5000000                       # Number of instructions simulated
sim_ops                                       9348414                       # Number of ops (including micro ops) simulated
sim_seconds                                  0.420316                       # Number of seconds simulated
sim_ticks                                420315539000                       # Number of ticks simulated
system.cachebus.snoop_filter.hit_multi_requests            0                       # Number of requests hitting in the snoop filter with multiple (>1) holders of the requested data.
system.cachebus.snoop_filter.hit_multi_snoops            0                       # Number of snoops hitting in the snoop filter with multiple (>1) holders of the requested data.
system.cachebus.snoop_filter.hit_single_requests            0                       # Number of requests hitting in the snoop filter with a single holder of the requested data.
system.cachebus.snoop_filter.hit_single_snoops            0                       # Number of snoops hitting in the snoop filter with a single holder of the requested data.
system.cachebus.snoop_filter.tot_requests            0                       # Total number of requests made to the snoop filter.
system.cachebus.snoop_filter.tot_snoops             0                       # Total number of snoops made to the snoop filter.
system.cpu.Branches                           1057147                       # Number of branches fetched
system.cpu.committedInsts                     5000000                       # Number of instructions committed
system.cpu.committedOps                       9348414                       # Number of ops (including micro ops) committed
system.cpu.dtb.rdAccesses                     1236351                       # TLB accesses on read requests
system.cpu.dtb.rdMisses                           124                       # TLB misses on read requests
system.cpu.dtb.wrAccesses                      685203                       # TLB accesses on write requests
system.cpu.dtb.wrMisses                            89                       # TLB misses on write requests
system.cpu.idle_fraction                            0                       # Percentage of idle cycles
system.cpu.itb.rdAccesses                           0                       # TLB accesses on read requests
system.cpu.itb.rdMisses                             0                       # TLB misses on read requests
system.cpu.itb.wrAccesses                     6535537                       # TLB accesses on write requests
system.cpu.itb.wrMisses                          1488                       # TLB misses on write requests
system.cpu.not_idle_fraction                        1                       # Percentage of non-idle cycles
system.cpu.numCycles                        420315539                       # number of cpu cycles simulated
system.cpu.numWorkItemsCompleted                    0                       # number of work items this cpu completed
system.cpu.numWorkItemsStarted                      0                       # number of work items this cpu started
system.cpu.num_busy_cycles                  420315539                       # Number of busy cycles
system.cpu.num_cc_register_reads              5186785                       # number of times the CC registers were read
system.cpu.num_cc_register_writes             2991811                       # number of times the CC registers were written
system.cpu.num_conditional_control_insts       765745                       # number of instructions that are conditional controls
system.cpu.num_fp_alu_accesses                 389396                       # Number of float alu accesses
system.cpu.num_fp_insts                        389396                       # number of float instructions
system.cpu.num_fp_register_reads               552091                       # number of times the floating registers were read
system.cpu.num_fp_register_writes              323569                       # number of times the floating registers were written
system.cpu.num_func_calls                      214661                       # number of times a function call or return occured
system.cpu.num_idle_cycles                          0                       # Number of idle cycles
system.cpu.num_int_alu_accesses               9112772                       # Number of integer alu accesses
system.cpu.num_int_insts                      9112772                       # number of integer instructions
system.cpu.num_int_register_reads            18192722                       # number of times the integer registers were read
system.cpu.num_int_register_writes            7429735                       # number of times the integer registers were written
system.cpu.num_load_insts                     1235059                       # Number of load instructions
system.cpu.num_mem_refs                       1919877                       # number of memory refs
system.cpu.num_store_insts                     684818                       # Number of store instructions
system.cpu.num_vec_alu_accesses                     0                       # Number of vector alu accesses
system.cpu.num_vec_insts                            0                       # number of vector instructions
system.cpu.num_vec_register_reads                   0                       # number of times the vector registers were read
system.cpu.num_vec_register_writes                  0                       # number of times the vector registers were written
system.cpu.op_class::No_OpClass                 32843      0.35%      0.35% # Class of executed instruction
system.cpu.op_class::IntAlu                   7125675     76.22%     76.57% # Class of executed instruction
system.cpu.op_class::IntMult                    17345      0.19%     76.76% # Class of executed instruction
system.cpu.op_class::IntDiv                     82249      0.88%     77.64% # Class of executed instruction
system.cpu.op_class::FloatAdd                    2244      0.02%     77.66% # Class of executed instruction
system.cpu.op_class::FloatCmp                       0      0.00%     77.66% # Class of executed instruction
system.cpu.op_class::FloatCvt                       0      0.00%     77.66% # Class of executed instruction
system.cpu.op_class::FloatMult                      0      0.00%     77.66% # Class of executed instruction
system.cpu.op_class::FloatMultAcc                   0      0.00%     77.66% # Class of executed instruction
system.cpu.op_class::FloatDiv                       0      0.00%     77.66% # Class of executed instruction
system.cpu.op_class::FloatMisc                      0      0.00%     77.66% # Class of executed instruction
system.cpu.op_class::FloatSqrt                      0      0.00%     77.66% # Class of executed instruction
system.cpu.op_class::SimdAdd                     1262      0.01%     77.68% # Class of executed instruction
system.cpu.op_class::SimdAddAcc                     0      0.00%     77.68% # Class of executed instruction
system.cpu.op_class::SimdAlu                    22344      0.24%     77.92% # Class of executed instruction
system.cpu.op_class::SimdCmp                      378      0.00%     77.92% # Class of executed instruction
system.cpu.op_class::SimdCvt                    11550      0.12%     78.04% # Class of executed instruction
system.cpu.op_class::SimdMisc                   20641      0.22%     78.26% # Class of executed instruction
system.cpu.op_class::SimdMult                       0      0.00%     78.26% # Class of executed instruction
system.cpu.op_class::SimdMultAcc                    0      0.00%     78.26% # Class of executed instruction
system.cpu.op_class::SimdShift                      0      0.00%     78.26% # Class of executed instruction
system.cpu.op_class::SimdShiftAcc                   0      0.00%     78.26% # Class of executed instruction
system.cpu.op_class::SimdDiv                        0      0.00%     78.26% # Class of executed instruction
system.cpu.op_class::SimdSqrt                       0      0.00%     78.26% # Class of executed instruction
system.cpu.op_class::SimdFloatAdd               43801      0.47%     78.73% # Class of executed instruction
system.cpu.op_class::SimdFloatAlu                   0      0.00%     78.73% # Class of executed instruction
system.cpu.op_class::SimdFloatCmp                  90      0.00%     78.73% # Class of executed instruction
system.cpu.op_class::SimdFloatCvt               10560      0.11%     78.85% # Class of executed instruction
system.cpu.op_class::SimdFloatDiv                 374      0.00%     78.85% # Class of executed instruction
system.cpu.op_class::SimdFloatMisc                  0      0.00%     78.85% # Class of executed instruction
system.cpu.op_class::SimdFloatMult              57164      0.61%     79.46% # Class of executed instruction
system.cpu.op_class::SimdFloatMultAcc               0      0.00%     79.46% # Class of executed instruction
system.cpu.op_class::SimdFloatSqrt                 54      0.00%     79.46% # Class of executed instruction
system.cpu.op_class::SimdReduceAdd                  0      0.00%     79.46% # Class of executed instruction
system.cpu.op_class::SimdReduceAlu                  0      0.00%     79.46% # Class of executed instruction
system.cpu.op_class::SimdReduceCmp                  0      0.00%     79.46% # Class of executed instruction
system.cpu.op_class::SimdFloatReduceAdd             0      0.00%     79.46% # Class of executed instruction
system.cpu.op_class::SimdFloatReduceCmp             0      0.00%     79.46% # Class of executed instruction
system.cpu.op_class::SimdAes                        0      0.00%     79.46% # Class of executed instruction
system.cpu.op_class::SimdAesMix                     0      0.00%     79.46% # Class of executed instruction
system.cpu.op_class::SimdSha1Hash                   0      0.00%     79.46% # Class of executed instruction
system.cpu.op_class::SimdSha1Hash2                  0      0.00%     79.46% # Class of executed instruction
system.cpu.op_class::SimdSha256Hash                 0      0.00%     79.46% # Class of executed instruction
system.cpu.op_class::SimdSha256Hash2                0      0.00%     79.46% # Class of executed instruction
system.cpu.op_class::SimdShaSigma2                  0      0.00%     79.46% # Class of executed instruction
system.cpu.op_class::SimdShaSigma3                  0      0.00%     79.46% # Class of executed instruction
system.cpu.op_class::SimdPredAlu                    0      0.00%     79.46% # Class of executed instruction
system.cpu.op_class::MemRead                  1098077     11.75%     91.21% # Class of executed instruction
system.cpu.op_class::MemWrite                  636870      6.81%     98.02% # Class of executed instruction
system.cpu.op_class::FloatMemRead              136982      1.47%     99.49% # Class of executed instruction
system.cpu.op_class::FloatMemWrite              47948      0.51%    100.00% # Class of executed instruction
system.cpu.op_class::IprAccess                      0      0.00%    100.00% # Class of executed instruction
system.cpu.op_class::InstPrefetch                   0      0.00%    100.00% # Class of executed instruction
system.cpu.op_class::total                    9348451                       # Class of executed instruction
system.cpu.workload.numSyscalls                   316                       # Number of system calls
system.membus.snoop_filter.hit_multi_requests            0                       # Number of requests hitting in the snoop filter with multiple (>1) holders of the requested data.
system.membus.snoop_filter.hit_multi_snoops            0                       # Number of snoops hitting in the snoop filter with multiple (>1) holders of the requested data.
system.membus.snoop_filter.hit_single_requests            0                       # Number of requests hitting in the snoop filter with a single holder of the requested data.
system.membus.snoop_filter.hit_single_snoops            0                       # Number of snoops hitting in the snoop filter with a single holder of the requested data.
system.membus.snoop_filter.tot_requests             0                       # Total number of requests made to the snoop filter.
system.membus.snoop_filter.tot_snoops               0                       # Total number of snoops made to the snoop filter.
system.membus.trans_dist::ReadReq             7770635                       # Transaction distribution
system.membus.trans_dist::ReadResp            7770634                       # Transaction distribution
system.membus.trans_dist::WriteReq             685166                       # Transaction distribution
system.membus.trans_dist::WriteResp            685166                       # Transaction distribution
system.membus.trans_dist::SoftPFReq              1253                       # Transaction distribution
system.membus.trans_dist::SoftPFResp             1253                       # Transaction distribution
system.membus.pkt_count_system.cpu.icache_port::system.mem_ctrl.port     13071073                       # Packet count per connected master and slave (bytes)
system.membus.pkt_count_system.cpu.icache_port::total     13071073                       # Packet count per connected master and slave (bytes)
system.membus.pkt_count_system.memobj.mem_side::system.mem_ctrl.port      3843034                       # Packet count per connected master and slave (bytes)
system.membus.pkt_count_system.memobj.mem_side::total      3843034                       # Packet count per connected master and slave (bytes)
system.membus.pkt_count::total               16914107                       # Packet count per connected master and slave (bytes)
system.membus.pkt_size_system.cpu.icache_port::system.mem_ctrl.port     52284288                       # Cumulative packet size per connected master and slave (bytes)
system.membus.pkt_size_system.cpu.icache_port::total     52284288                       # Cumulative packet size per connected master and slave (bytes)
system.membus.pkt_size_system.memobj.mem_side::system.mem_ctrl.port     13536131                       # Cumulative packet size per connected master and slave (bytes)
system.membus.pkt_size_system.memobj.mem_side::total     13536131                       # Cumulative packet size per connected master and slave (bytes)
system.membus.pkt_size::total                65820419                       # Cumulative packet size per connected master and slave (bytes)
system.membus.snoops                                0                       # Total snoops (count)
system.membus.snoopTraffic                          0                       # Total snoop traffic (bytes)
system.membus.snoop_fanout::samples           8457054                       # Request fanout histogram
system.membus.snoop_fanout::mean                    0                       # Request fanout histogram
system.membus.snoop_fanout::stdev                   0                       # Request fanout histogram
system.membus.snoop_fanout::underflows              0      0.00%      0.00% # Request fanout histogram
system.membus.snoop_fanout::0                 8457054    100.00%    100.00% # Request fanout histogram
system.membus.snoop_fanout::1                       0      0.00%    100.00% # Request fanout histogram
system.membus.snoop_fanout::overflows               0      0.00%    100.00% # Request fanout histogram
system.membus.snoop_fanout::min_value               0                       # Request fanout histogram
system.membus.snoop_fanout::max_value               0                       # Request fanout histogram
system.membus.snoop_fanout::total             8457054                       # Request fanout histogram
system.membus.reqLayer2.occupancy          9142220000                       # Layer occupancy (ticks)
system.membus.reqLayer2.utilization               2.2                       # Layer utilization (%)
system.membus.respLayer1.occupancy         3537932500                       # Layer occupancy (ticks)
system.membus.respLayer1.utilization              0.8                       # Layer utilization (%)
system.membus.respLayer0.occupancy        14878360000                       # Layer occupancy (ticks)
system.membus.respLayer0.utilization              3.5                       # Layer utilization (%)
system.membus.power_state.pwrStateResidencyTicks::UNDEFINED 420315539000                       # Cumulative time (in ticks) in various power states
system.mem_ctrl.bytes_read::.cpu.inst        52284288                       # Number of bytes read from this memory
system.mem_ctrl.bytes_read::.cpu.data         8618170                       # Number of bytes read from this memory
system.mem_ctrl.bytes_read::total            60902458                       # Number of bytes read from this memory
system.mem_ctrl.bytes_inst_read::.cpu.inst     52284288                       # Number of instructions bytes read from this memory
system.mem_ctrl.bytes_inst_read::total       52284288                       # Number of instructions bytes read from this memory
system.mem_ctrl.bytes_written::.cpu.data      4917961                       # Number of bytes written to this memory
system.mem_ctrl.bytes_written::total          4917961                       # Number of bytes written to this memory
system.mem_ctrl.num_reads::.cpu.inst          6535536                       # Number of read requests responded to by this memory
system.mem_ctrl.num_reads::.cpu.data          1236351                       # Number of read requests responded to by this memory
system.mem_ctrl.num_reads::total              7771887                       # Number of read requests responded to by this memory
system.mem_ctrl.num_writes::.cpu.data          685166                       # Number of write requests responded to by this memory
system.mem_ctrl.num_writes::total              685166                       # Number of write requests responded to by this memory
system.mem_ctrl.bw_read::.cpu.inst          124392946                       # Total read bandwidth from this memory (bytes/s)
system.mem_ctrl.bw_read::.cpu.data           20504048                       # Total read bandwidth from this memory (bytes/s)
system.mem_ctrl.bw_read::total              144896994                       # Total read bandwidth from this memory (bytes/s)
system.mem_ctrl.bw_inst_read::.cpu.inst     124392946                       # Instruction read bandwidth from this memory (bytes/s)
system.mem_ctrl.bw_inst_read::total         124392946                       # Instruction read bandwidth from this memory (bytes/s)
system.mem_ctrl.bw_write::.cpu.data          11700640                       # Write bandwidth from this memory (bytes/s)
system.mem_ctrl.bw_write::total              11700640                       # Write bandwidth from this memory (bytes/s)
system.mem_ctrl.bw_total::.cpu.inst         124392946                       # Total bandwidth to/from this memory (bytes/s)
system.mem_ctrl.bw_total::.cpu.data          32204688                       # Total bandwidth to/from this memory (bytes/s)
system.mem_ctrl.bw_total::total             156597634                       # Total bandwidth to/from this memory (bytes/s)
system.mem_ctrl.avgPriority_.cpu.inst::samples   6535537.00                       # Average QoS priority value for accepted requests
system.mem_ctrl.avgPriority_.cpu.data::samples   1101012.00                       # Average QoS priority value for accepted requests
system.mem_ctrl.priorityMinLatency       0.000000018750                       # per QoS priority minimum request to response latency (s)
system.mem_ctrl.priorityMaxLatency       0.032619270750                       # per QoS priority maximum request to response latency (s)
system.mem_ctrl.numReadWriteTurnArounds          1859                       # Number of turnarounds from READ to WRITE
system.mem_ctrl.numWriteReadTurnArounds          1859                       # Number of turnarounds from WRITE to READ
system.mem_ctrl.numStayReadState             16004695                       # Number of times bus staying in READ state
system.mem_ctrl.numStayWriteState               27922                       # Number of times bus staying in WRITE state
system.mem_ctrl.readReqs                      7771888                       # Number of read requests accepted
system.mem_ctrl.writeReqs                      685166                       # Number of write requests accepted
system.mem_ctrl.readBursts                    7771888                       # Number of DRAM read bursts, including those serviced by the write queue
system.mem_ctrl.writeBursts                    685166                       # Number of DRAM write bursts, including those merged in the write queue
system.mem_ctrl.servicedByWrQ                  165121                       # Number of DRAM read bursts serviced by the write queue
system.mem_ctrl.mergedWrBursts                 655384                       # Number of DRAM write bursts merged with an existing one
system.mem_ctrl.neitherReadNorWriteReqs             0                       # Number of requests that are neither read nor write
system.mem_ctrl.perBankRdBursts::0             335650                       # Per bank write bursts
system.mem_ctrl.perBankRdBursts::1            1222901                       # Per bank write bursts
system.mem_ctrl.perBankRdBursts::2            1057914                       # Per bank write bursts
system.mem_ctrl.perBankRdBursts::3             867567                       # Per bank write bursts
system.mem_ctrl.perBankRdBursts::4             421586                       # Per bank write bursts
system.mem_ctrl.perBankRdBursts::5             291519                       # Per bank write bursts
system.mem_ctrl.perBankRdBursts::6             303464                       # Per bank write bursts
system.mem_ctrl.perBankRdBursts::7             190952                       # Per bank write bursts
system.mem_ctrl.perBankRdBursts::8             611020                       # Per bank write bursts
system.mem_ctrl.perBankRdBursts::9              86856                       # Per bank write bursts
system.mem_ctrl.perBankRdBursts::10             97814                       # Per bank write bursts
system.mem_ctrl.perBankRdBursts::11            687565                       # Per bank write bursts
system.mem_ctrl.perBankRdBursts::12            117393                       # Per bank write bursts
system.mem_ctrl.perBankRdBursts::13            896326                       # Per bank write bursts
system.mem_ctrl.perBankRdBursts::14            317424                       # Per bank write bursts
system.mem_ctrl.perBankRdBursts::15            100816                       # Per bank write bursts
system.mem_ctrl.perBankWrBursts::0               2459                       # Per bank write bursts
system.mem_ctrl.perBankWrBursts::1               6442                       # Per bank write bursts
system.mem_ctrl.perBankWrBursts::2               3376                       # Per bank write bursts
system.mem_ctrl.perBankWrBursts::3               1823                       # Per bank write bursts
system.mem_ctrl.perBankWrBursts::4                872                       # Per bank write bursts
system.mem_ctrl.perBankWrBursts::5               5506                       # Per bank write bursts
system.mem_ctrl.perBankWrBursts::6                240                       # Per bank write bursts
system.mem_ctrl.perBankWrBursts::7                216                       # Per bank write bursts
system.mem_ctrl.perBankWrBursts::8                359                       # Per bank write bursts
system.mem_ctrl.perBankWrBursts::9                293                       # Per bank write bursts
system.mem_ctrl.perBankWrBursts::10               327                       # Per bank write bursts
system.mem_ctrl.perBankWrBursts::11              3356                       # Per bank write bursts
system.mem_ctrl.perBankWrBursts::12              1136                       # Per bank write bursts
system.mem_ctrl.perBankWrBursts::13              1513                       # Per bank write bursts
system.mem_ctrl.perBankWrBursts::14               958                       # Per bank write bursts
system.mem_ctrl.perBankWrBursts::15               881                       # Per bank write bursts
system.mem_ctrl.avgRdQLen                        1.00                       # Average read queue length when enqueuing
system.mem_ctrl.avgWrQLen                       27.18                       # Average write queue length when enqueuing
system.mem_ctrl.totQLat                   29674366000                       # Total ticks spent queuing
system.mem_ctrl.totBusLat                 38033835000                       # Total ticks spent in databus transfers
system.mem_ctrl.totMemAccLat             172301247250                       # Total ticks spent from burst creation until serviced by the DRAM
system.mem_ctrl.avgQLat                       3901.05                       # Average queueing delay per DRAM burst
system.mem_ctrl.avgBusLat                     5000.00                       # Average bus latency per DRAM burst
system.mem_ctrl.avgMemAccLat                 22651.05                       # Average memory access latency per DRAM burst
system.mem_ctrl.numRdRetry                          0                       # Number of times read queue was full causing retry
system.mem_ctrl.numWrRetry                          0                       # Number of times write queue was full causing retry
system.mem_ctrl.readRowHits                   6707058                       # Number of row buffer hits during reads
system.mem_ctrl.writeRowHits                    26248                       # Number of row buffer hits during writes
system.mem_ctrl.readRowHitRate                  88.17                       # Row buffer hit rate for reads
system.mem_ctrl.writeRowHitRate                 88.13                       # Row buffer hit rate for writes
system.mem_ctrl.readPktSize::0                  83302                       # Read request sizes (log2)
system.mem_ctrl.readPktSize::1                  10137                       # Read request sizes (log2)
system.mem_ctrl.readPktSize::2                 156605                       # Read request sizes (log2)
system.mem_ctrl.readPktSize::3                7521844                       # Read request sizes (log2)
system.mem_ctrl.readPktSize::4                      0                       # Read request sizes (log2)
system.mem_ctrl.readPktSize::5                      0                       # Read request sizes (log2)
system.mem_ctrl.readPktSize::6                      0                       # Read request sizes (log2)
system.mem_ctrl.writePktSize::0                 27243                       # Write request sizes (log2)
system.mem_ctrl.writePktSize::1                  2202                       # Write request sizes (log2)
system.mem_ctrl.writePktSize::2                 89705                       # Write request sizes (log2)
system.mem_ctrl.writePktSize::3                566016                       # Write request sizes (log2)
system.mem_ctrl.writePktSize::4                     0                       # Write request sizes (log2)
system.mem_ctrl.writePktSize::5                     0                       # Write request sizes (log2)
system.mem_ctrl.writePktSize::6                     0                       # Write request sizes (log2)
system.mem_ctrl.rdQLenPdf::0                  7605699                       # What read queue length does an incoming req see
system.mem_ctrl.rdQLenPdf::1                     1068                       # What read queue length does an incoming req see
system.mem_ctrl.rdQLenPdf::2                        0                       # What read queue length does an incoming req see
system.mem_ctrl.rdQLenPdf::3                        0                       # What read queue length does an incoming req see
system.mem_ctrl.rdQLenPdf::4                        0                       # What read queue length does an incoming req see
system.mem_ctrl.rdQLenPdf::5                        0                       # What read queue length does an incoming req see
system.mem_ctrl.rdQLenPdf::6                        0                       # What read queue length does an incoming req see
system.mem_ctrl.rdQLenPdf::7                        0                       # What read queue length does an incoming req see
system.mem_ctrl.rdQLenPdf::8                        0                       # What read queue length does an incoming req see
system.mem_ctrl.rdQLenPdf::9                        0                       # What read queue length does an incoming req see
system.mem_ctrl.rdQLenPdf::10                       0                       # What read queue length does an incoming req see
system.mem_ctrl.rdQLenPdf::11                       0                       # What read queue length does an incoming req see
system.mem_ctrl.rdQLenPdf::12                       0                       # What read queue length does an incoming req see
system.mem_ctrl.rdQLenPdf::13                       0                       # What read queue length does an incoming req see
system.mem_ctrl.rdQLenPdf::14                       0                       # What read queue length does an incoming req see
system.mem_ctrl.rdQLenPdf::15                       0                       # What read queue length does an incoming req see
system.mem_ctrl.rdQLenPdf::16                       0                       # What read queue length does an incoming req see
system.mem_ctrl.rdQLenPdf::17                       0                       # What read queue length does an incoming req see
system.mem_ctrl.rdQLenPdf::18                       0                       # What read queue length does an incoming req see
system.mem_ctrl.rdQLenPdf::19                       0                       # What read queue length does an incoming req see
system.mem_ctrl.rdQLenPdf::20                       0                       # What read queue length does an incoming req see
system.mem_ctrl.rdQLenPdf::21                       0                       # What read queue length does an incoming req see
system.mem_ctrl.rdQLenPdf::22                       0                       # What read queue length does an incoming req see
system.mem_ctrl.rdQLenPdf::23                       0                       # What read queue length does an incoming req see
system.mem_ctrl.rdQLenPdf::24                       0                       # What read queue length does an incoming req see
system.mem_ctrl.rdQLenPdf::25                       0                       # What read queue length does an incoming req see
system.mem_ctrl.rdQLenPdf::26                       0                       # What read queue length does an incoming req see
system.mem_ctrl.rdQLenPdf::27                       0                       # What read queue length does an incoming req see
system.mem_ctrl.rdQLenPdf::28                       0                       # What read queue length does an incoming req see
system.mem_ctrl.rdQLenPdf::29                       0                       # What read queue length does an incoming req see
system.mem_ctrl.rdQLenPdf::30                       0                       # What read queue length does an incoming req see
system.mem_ctrl.rdQLenPdf::31                       0                       # What read queue length does an incoming req see
system.mem_ctrl.wrQLenPdf::0                        1                       # What write queue length does an incoming req see
system.mem_ctrl.wrQLenPdf::1                        1                       # What write queue length does an incoming req see
system.mem_ctrl.wrQLenPdf::2                        1                       # What write queue length does an incoming req see
system.mem_ctrl.wrQLenPdf::3                        1                       # What write queue length does an incoming req see
system.mem_ctrl.wrQLenPdf::4                        1                       # What write queue length does an incoming req see
system.mem_ctrl.wrQLenPdf::5                        1                       # What write queue length does an incoming req see
system.mem_ctrl.wrQLenPdf::6                        1                       # What write queue length does an incoming req see
system.mem_ctrl.wrQLenPdf::7                        1                       # What write queue length does an incoming req see
system.mem_ctrl.wrQLenPdf::8                        1                       # What write queue length does an incoming req see
system.mem_ctrl.wrQLenPdf::9                        1                       # What write queue length does an incoming req see
system.mem_ctrl.wrQLenPdf::10                       1                       # What write queue length does an incoming req see
system.mem_ctrl.wrQLenPdf::11                       1                       # What write queue length does an incoming req see
system.mem_ctrl.wrQLenPdf::12                       1                       # What write queue length does an incoming req see
system.mem_ctrl.wrQLenPdf::13                       1                       # What write queue length does an incoming req see
system.mem_ctrl.wrQLenPdf::14                       1                       # What write queue length does an incoming req see
system.mem_ctrl.wrQLenPdf::15                       6                       # What write queue length does an incoming req see
system.mem_ctrl.wrQLenPdf::16                       7                       # What write queue length does an incoming req see
system.mem_ctrl.wrQLenPdf::17                    1859                       # What write queue length does an incoming req see
system.mem_ctrl.wrQLenPdf::18                    1860                       # What write queue length does an incoming req see
system.mem_ctrl.wrQLenPdf::19                    1860                       # What write queue length does an incoming req see
system.mem_ctrl.wrQLenPdf::20                    1861                       # What write queue length does an incoming req see
system.mem_ctrl.wrQLenPdf::21                    1860                       # What write queue length does an incoming req see
system.mem_ctrl.wrQLenPdf::22                    1860                       # What write queue length does an incoming req see
system.mem_ctrl.wrQLenPdf::23                    1862                       # What write queue length does an incoming req see
system.mem_ctrl.wrQLenPdf::24                    1860                       # What write queue length does an incoming req see
system.mem_ctrl.wrQLenPdf::25                    1859                       # What write queue length does an incoming req see
system.mem_ctrl.wrQLenPdf::26                    1859                       # What write queue length does an incoming req see
system.mem_ctrl.wrQLenPdf::27                    1859                       # What write queue length does an incoming req see
system.mem_ctrl.wrQLenPdf::28                    1859                       # What write queue length does an incoming req see
system.mem_ctrl.wrQLenPdf::29                    1859                       # What write queue length does an incoming req see
system.mem_ctrl.wrQLenPdf::30                    1859                       # What write queue length does an incoming req see
system.mem_ctrl.wrQLenPdf::31                    1859                       # What write queue length does an incoming req see
system.mem_ctrl.wrQLenPdf::32                    1859                       # What write queue length does an incoming req see
system.mem_ctrl.wrQLenPdf::33                       0                       # What write queue length does an incoming req see
system.mem_ctrl.wrQLenPdf::34                       0                       # What write queue length does an incoming req see
system.mem_ctrl.wrQLenPdf::35                       0                       # What write queue length does an incoming req see
system.mem_ctrl.wrQLenPdf::36                       0                       # What write queue length does an incoming req see
system.mem_ctrl.wrQLenPdf::37                       0                       # What write queue length does an incoming req see
system.mem_ctrl.wrQLenPdf::38                       0                       # What write queue length does an incoming req see
system.mem_ctrl.wrQLenPdf::39                       0                       # What write queue length does an incoming req see
system.mem_ctrl.wrQLenPdf::40                       0                       # What write queue length does an incoming req see
system.mem_ctrl.wrQLenPdf::41                       0                       # What write queue length does an incoming req see
system.mem_ctrl.wrQLenPdf::42                       0                       # What write queue length does an incoming req see
system.mem_ctrl.wrQLenPdf::43                       0                       # What write queue length does an incoming req see
system.mem_ctrl.wrQLenPdf::44                       0                       # What write queue length does an incoming req see
system.mem_ctrl.wrQLenPdf::45                       0                       # What write queue length does an incoming req see
system.mem_ctrl.wrQLenPdf::46                       0                       # What write queue length does an incoming req see
system.mem_ctrl.wrQLenPdf::47                       0                       # What write queue length does an incoming req see
system.mem_ctrl.wrQLenPdf::48                       0                       # What write queue length does an incoming req see
system.mem_ctrl.wrQLenPdf::49                       0                       # What write queue length does an incoming req see
system.mem_ctrl.wrQLenPdf::50                       0                       # What write queue length does an incoming req see
system.mem_ctrl.wrQLenPdf::51                       0                       # What write queue length does an incoming req see
system.mem_ctrl.wrQLenPdf::52                       0                       # What write queue length does an incoming req see
system.mem_ctrl.wrQLenPdf::53                       0                       # What write queue length does an incoming req see
system.mem_ctrl.wrQLenPdf::54                       0                       # What write queue length does an incoming req see
system.mem_ctrl.wrQLenPdf::55                       0                       # What write queue length does an incoming req see
system.mem_ctrl.wrQLenPdf::56                       0                       # What write queue length does an incoming req see
system.mem_ctrl.wrQLenPdf::57                       0                       # What write queue length does an incoming req see
system.mem_ctrl.wrQLenPdf::58                       0                       # What write queue length does an incoming req see
system.mem_ctrl.wrQLenPdf::59                       0                       # What write queue length does an incoming req see
system.mem_ctrl.wrQLenPdf::60                       0                       # What write queue length does an incoming req see
system.mem_ctrl.wrQLenPdf::61                       0                       # What write queue length does an incoming req see
system.mem_ctrl.wrQLenPdf::62                       0                       # What write queue length does an incoming req see
system.mem_ctrl.wrQLenPdf::63                       0                       # What write queue length does an incoming req see
system.mem_ctrl.bytesPerActivate::samples       903212                       # Bytes accessed per row activation
system.mem_ctrl.bytesPerActivate::mean     541.108984                       # Bytes accessed per row activation
system.mem_ctrl.bytesPerActivate::gmean    334.445386                       # Bytes accessed per row activation
system.mem_ctrl.bytesPerActivate::stdev    406.863943                       # Bytes accessed per row activation
system.mem_ctrl.bytesPerActivate::0-127        215518     23.86%     23.86% # Bytes accessed per row activation
system.mem_ctrl.bytesPerActivate::128-255       111248     12.32%     36.18% # Bytes accessed per row activation
system.mem_ctrl.bytesPerActivate::256-383        68416      7.57%     43.75% # Bytes accessed per row activation
system.mem_ctrl.bytesPerActivate::384-511        52292      5.79%     49.54% # Bytes accessed per row activation
system.mem_ctrl.bytesPerActivate::512-639        52616      5.83%     55.37% # Bytes accessed per row activation
system.mem_ctrl.bytesPerActivate::640-767        38821      4.30%     59.67% # Bytes accessed per row activation
system.mem_ctrl.bytesPerActivate::768-895        35672      3.95%     63.62% # Bytes accessed per row activation
system.mem_ctrl.bytesPerActivate::896-1023        25594      2.83%     66.45% # Bytes accessed per row activation
system.mem_ctrl.bytesPerActivate::1024-1151       303035     33.55%    100.00% # Bytes accessed per row activation
system.mem_ctrl.bytesPerActivate::total        903212                       # Bytes accessed per row activation
system.mem_ctrl.rdPerTurnAround::samples         1859                       # Reads before turning the bus around for writes
system.mem_ctrl.rdPerTurnAround::mean     4088.762238                       # Reads before turning the bus around for writes
system.mem_ctrl.rdPerTurnAround::gmean    2009.220890                       # Reads before turning the bus around for writes
system.mem_ctrl.rdPerTurnAround::stdev    7685.175949                       # Reads before turning the bus around for writes
system.mem_ctrl.rdPerTurnAround::0-4095          1469     79.02%     79.02% # Reads before turning the bus around for writes
system.mem_ctrl.rdPerTurnAround::4096-8191          206     11.08%     90.10% # Reads before turning the bus around for writes
system.mem_ctrl.rdPerTurnAround::8192-12287           59      3.17%     93.28% # Reads before turning the bus around for writes
system.mem_ctrl.rdPerTurnAround::12288-16383           30      1.61%     94.89% # Reads before turning the bus around for writes
system.mem_ctrl.rdPerTurnAround::16384-20479           26      1.40%     96.29% # Reads before turning the bus around for writes
system.mem_ctrl.rdPerTurnAround::20480-24575           18      0.97%     97.26% # Reads before turning the bus around for writes
system.mem_ctrl.rdPerTurnAround::24576-28671           15      0.81%     98.06% # Reads before turning the bus around for writes
system.mem_ctrl.rdPerTurnAround::28672-32767            4      0.22%     98.28% # Reads before turning the bus around for writes
system.mem_ctrl.rdPerTurnAround::32768-36863            3      0.16%     98.44% # Reads before turning the bus around for writes
system.mem_ctrl.rdPerTurnAround::36864-40959            3      0.16%     98.60% # Reads before turning the bus around for writes
system.mem_ctrl.rdPerTurnAround::40960-45055            2      0.11%     98.71% # Reads before turning the bus around for writes
system.mem_ctrl.rdPerTurnAround::45056-49151            6      0.32%     99.03% # Reads before turning the bus around for writes
system.mem_ctrl.rdPerTurnAround::49152-53247            6      0.32%     99.35% # Reads before turning the bus around for writes
system.mem_ctrl.rdPerTurnAround::53248-57343            7      0.38%     99.73% # Reads before turning the bus around for writes
system.mem_ctrl.rdPerTurnAround::61440-65535            1      0.05%     99.78% # Reads before turning the bus around for writes
system.mem_ctrl.rdPerTurnAround::65536-69631            3      0.16%     99.95% # Reads before turning the bus around for writes
system.mem_ctrl.rdPerTurnAround::73728-77823            1      0.05%    100.00% # Reads before turning the bus around for writes
system.mem_ctrl.rdPerTurnAround::total           1859                       # Reads before turning the bus around for writes
system.mem_ctrl.wrPerTurnAround::samples         1859                       # Writes before turning the bus around for reads
system.mem_ctrl.wrPerTurnAround::mean       16.006993                       # Writes before turning the bus around for reads
system.mem_ctrl.wrPerTurnAround::gmean      16.006397                       # Writes before turning the bus around for reads
system.mem_ctrl.wrPerTurnAround::stdev       0.148384                       # Writes before turning the bus around for reads
system.mem_ctrl.wrPerTurnAround::16              1854     99.73%     99.73% # Writes before turning the bus around for reads
system.mem_ctrl.wrPerTurnAround::18                 4      0.22%     99.95% # Writes before turning the bus around for reads
system.mem_ctrl.wrPerTurnAround::21                 1      0.05%    100.00% # Writes before turning the bus around for reads
system.mem_ctrl.wrPerTurnAround::total           1859                       # Writes before turning the bus around for reads
system.mem_ctrl.bytesReadDRAM               486833088                       # Total number of bytes read from DRAM
system.mem_ctrl.bytesReadWrQ                 10567744                       # Total number of bytes read from write queue
system.mem_ctrl.bytesWritten                  1904448                       # Total number of bytes written to DRAM
system.mem_ctrl.bytesReadSys                 60902466                       # Total read bytes from the system interface side
system.mem_ctrl.bytesWrittenSys               4917961                       # Total written bytes from the system interface side
system.mem_ctrl.avgRdBW                       1158.26                       # Average DRAM read bandwidth in MiByte/s
system.mem_ctrl.avgWrBW                          4.53                       # Average achieved write bandwidth in MiByte/s
system.mem_ctrl.avgRdBWSys                     144.90                       # Average system read bandwidth in MiByte/s
system.mem_ctrl.avgWrBWSys                      11.70                       # Average system write bandwidth in MiByte/s
system.mem_ctrl.peakBW                       12800.00                       # Theoretical peak bandwidth in MiByte/s
system.mem_ctrl.busUtil                          9.08                       # Data bus utilization in percentage
system.mem_ctrl.busUtilRead                      9.05                       # Data bus utilization in percentage for reads
system.mem_ctrl.busUtilWrite                     0.04                       # Data bus utilization in percentage for writes
system.mem_ctrl.totGap                   420315462000                       # Total gap between requests
system.mem_ctrl.avgGap                       49699.99                       # Average gap between requests
system.mem_ctrl.masterReadBytes::.cpu.inst     52284296                       # Per-master bytes read from memory
system.mem_ctrl.masterReadBytes::.cpu.data      7505358                       # Per-master bytes read from memory
system.mem_ctrl.masterWriteBytes::.cpu.data       216834                       # Per-master bytes write to memory
system.mem_ctrl.masterReadRate::.cpu.inst 124392964.686466172338                       # Per-master bytes read from memory rate (Bytes/sec)
system.mem_ctrl.masterReadRate::.cpu.data 17856484.720637463033                       # Per-master bytes read from memory rate (Bytes/sec)
system.mem_ctrl.masterWriteRate::.cpu.data 515883.853630260390                       # Per-master bytes write to memory rate (Bytes/sec)
system.mem_ctrl.masterReadAccesses::.cpu.inst      6535537                       # Per-master read serviced memory accesses
system.mem_ctrl.masterReadAccesses::.cpu.data      1236351                       # Per-master read serviced memory accesses
system.mem_ctrl.masterWriteAccesses::.cpu.data       685166                       # Per-master write serviced memory accesses
system.mem_ctrl.masterReadTotalLat::.cpu.inst 144162415750                       # Per-master read total memory access latency
system.mem_ctrl.masterReadTotalLat::.cpu.data  28138831500                       # Per-master read total memory access latency
system.mem_ctrl.masterWriteTotalLat::.cpu.data 11316770472000                       # Per-master write total memory access latency
system.mem_ctrl.masterReadAvgLat::.cpu.inst     22058.24                       # Per-master read average memory access latency
system.mem_ctrl.masterReadAvgLat::.cpu.data     22759.58                       # Per-master read average memory access latency
system.mem_ctrl.masterWriteAvgLat::.cpu.data  16516830.19                       # Per-master write average memory access latency
system.mem_ctrl.pageHitRate                     88.17                       # Row buffer hit rate, read and write combined
system.mem_ctrl.rank1.actEnergy            2445171540                       # Energy for activate commands per rank (pJ)
system.mem_ctrl.rank1.preEnergy            1299628110                       # Energy for precharge commands per rank (pJ)
system.mem_ctrl.rank1.readEnergy          20814627960                       # Energy for read commands per rank (pJ)
system.mem_ctrl.rank1.writeEnergy            46056060                       # Energy for write commands per rank (pJ)
system.mem_ctrl.rank1.refreshEnergy      33178881840.000004                       # Energy for refresh commands per rank (pJ)
system.mem_ctrl.rank1.actBackEnergy      161154948600                       # Energy for active background per rank (pJ)
system.mem_ctrl.rank1.preBackEnergy       25691736960                       # Energy for precharge background per rank (pJ)
system.mem_ctrl.rank1.actPowerDownEnergy            0                       # Energy for active power-down per rank (pJ)
system.mem_ctrl.rank1.prePowerDownEnergy            0                       # Energy for precharge power-down per rank (pJ)
system.mem_ctrl.rank1.selfRefreshEnergy             0                       # Energy for self refresh per rank (pJ)
system.mem_ctrl.rank1.totalEnergy        244631051070                       # Total energy per rank (pJ)
system.mem_ctrl.rank1.averagePower         582.017623                       # Core power per rank (mW)
system.mem_ctrl.rank1.totalIdleTime                 0                       # Total Idle time Per DRAM Rank
system.mem_ctrl.rank1.memoryStateTime::IDLE  65004646750                       # Time in different power states
system.mem_ctrl.rank1.memoryStateTime::REF  14035060000                       # Time in different power states
system.mem_ctrl.rank1.memoryStateTime::SREF            0                       # Time in different power states
system.mem_ctrl.rank1.memoryStateTime::PRE_PDN            0                       # Time in different power states
system.mem_ctrl.rank1.memoryStateTime::ACT 341275832250                       # Time in different power states
system.mem_ctrl.rank1.memoryStateTime::ACT_PDN            0                       # Time in different power states
system.mem_ctrl.rank0.actEnergy            4003804980                       # Energy for activate commands per rank (pJ)
system.mem_ctrl.rank0.preEnergy            2128061430                       # Energy for precharge commands per rank (pJ)
system.mem_ctrl.rank0.readEnergy          33497688420                       # Energy for read commands per rank (pJ)
system.mem_ctrl.rank0.writeEnergy           109275480                       # Energy for write commands per rank (pJ)
system.mem_ctrl.rank0.refreshEnergy      33178881840.000004                       # Energy for refresh commands per rank (pJ)
system.mem_ctrl.rank0.actBackEnergy      182237355060                       # Energy for active background per rank (pJ)
system.mem_ctrl.rank0.preBackEnergy        7938131520                       # Energy for precharge background per rank (pJ)
system.mem_ctrl.rank0.actPowerDownEnergy            0                       # Energy for active power-down per rank (pJ)
system.mem_ctrl.rank0.prePowerDownEnergy            0                       # Energy for precharge power-down per rank (pJ)
system.mem_ctrl.rank0.selfRefreshEnergy             0                       # Energy for self refresh per rank (pJ)
system.mem_ctrl.rank0.totalEnergy        263093198730                       # Total energy per rank (pJ)
system.mem_ctrl.rank0.averagePower         625.942118                       # Core power per rank (mW)
system.mem_ctrl.rank0.totalIdleTime                 0                       # Total Idle time Per DRAM Rank
system.mem_ctrl.rank0.memoryStateTime::IDLE  18221872250                       # Time in different power states
system.mem_ctrl.rank0.memoryStateTime::REF  14035060000                       # Time in different power states
system.mem_ctrl.rank0.memoryStateTime::SREF            0                       # Time in different power states
system.mem_ctrl.rank0.memoryStateTime::PRE_PDN            0                       # Time in different power states
system.mem_ctrl.rank0.memoryStateTime::ACT 388058606750                       # Time in different power states
system.mem_ctrl.rank0.memoryStateTime::ACT_PDN            0                       # Time in different power states
system.mem_ctrl.power_state.pwrStateResidencyTicks::UNDEFINED 420315539000                       # Cumulative time (in ticks) in various power states
system.cache.blocked_cycles::no_mshrs               0                       # number of cycles access was blocked
system.cache.blocked_cycles::no_targets             0                       # number of cycles access was blocked
system.cache.blocked::no_mshrs                      0                       # number of cycles access was blocked
system.cache.blocked::no_targets                    0                       # number of cycles access was blocked
system.cache.avg_blocked_cycles::no_mshrs          nan                       # average number of cycles each access was blocked
system.cache.avg_blocked_cycles::no_targets          nan                       # average number of cycles each access was blocked
system.cache.replacements                           0                       # number of replacements
system.cache.power_state.pwrStateResidencyTicks::UNDEFINED 420315539000                       # Cumulative time (in ticks) in various power states
system.cache.tags.tagsinuse                         0                       # Cycle average of tags in use
system.cache.tags.total_refs                        0                       # Total number of references to valid blocks.
system.cache.tags.sampled_refs                      0                       # Sample count of references to valid blocks.
system.cache.tags.avg_refs                        nan                       # Average number of references to valid blocks.
system.cache.tags.warmup_cycle                      0                       # Cycle when the warmup percentage was hit.
system.cache.tags.tag_accesses                      0                       # Number of tag accesses
system.cache.tags.data_accesses                     0                       # Number of data accesses
system.cache.tags.power_state.pwrStateResidencyTicks::UNDEFINED 420315539000                       # Cumulative time (in ticks) in various power states
system.clk_domain.clock                          1000                       # Clock period in ticks
system.clk_domain.voltage_domain.voltage            1                       # Voltage in Volts
system.cachebus.snoops                              0                       # Total snoops (count)
system.cachebus.snoopTraffic                        0                       # Total snoop traffic (bytes)
system.cachebus.snoop_fanout::samples               0                       # Request fanout histogram
system.cachebus.snoop_fanout::mean                nan                       # Request fanout histogram
system.cachebus.snoop_fanout::stdev               nan                       # Request fanout histogram
system.cachebus.snoop_fanout::underflows            0                       # Request fanout histogram
system.cachebus.snoop_fanout::0                     0                       # Request fanout histogram
system.cachebus.snoop_fanout::overflows             0                       # Request fanout histogram
system.cachebus.snoop_fanout::min_value             0                       # Request fanout histogram
system.cachebus.snoop_fanout::max_value             0                       # Request fanout histogram
system.cachebus.snoop_fanout::total                 0                       # Request fanout histogram
system.cachebus.power_state.pwrStateResidencyTicks::UNDEFINED 420315539000                       # Cumulative time (in ticks) in various power states
system.cpu.dtb.walker.power_state.pwrStateResidencyTicks::UNDEFINED 420315539000                       # Cumulative time (in ticks) in various power states
system.cpu.interrupts.clk_domain.clock          16000                       # Clock period in ticks
system.cpu.itb.walker.power_state.pwrStateResidencyTicks::UNDEFINED 420315539000                       # Cumulative time (in ticks) in various power states
system.cpu.power_state.numTransitions               1                       # Number of power state transitions
system.cpu.power_state.pwrStateResidencyTicks::ON 420315539000                       # Cumulative time (in ticks) in various power states

---------- End Simulation Statistics   ----------
