
---------- Begin Simulation Statistics ----------
final_tick                                 5461042000                       # Number of ticks from beginning of simulation (restored from checkpoints and never reset)
host_inst_rate                                  62716                       # Simulator instruction rate (inst/s)
host_mem_usage                               34259940                       # Number of bytes of host memory used
host_op_rate                                   113168                       # Simulator op (including micro ops) rate (op/s)
host_seconds                                    15.95                       # Real time elapsed on the host
host_tick_rate                              342488045                       # Simulator tick rate (ticks/s)
sim_freq                                 1000000000000                       # Frequency of simulated ticks
sim_insts                                     1000001                       # Number of instructions simulated
sim_ops                                       1804475                       # Number of ops (including micro ops) simulated
sim_seconds                                  0.005461                       # Number of seconds simulated
sim_ticks                                  5461042000                       # Number of ticks simulated
system.cpu.Branches                            205593                       # Number of branches fetched
system.cpu.committedInsts                     1000001                       # Number of instructions committed
system.cpu.committedOps                       1804475                       # Number of ops (including micro ops) committed
system.cpu.dtb.rdAccesses                      210775                       # TLB accesses on read requests
system.cpu.dtb.rdMisses                           104                       # TLB misses on read requests
system.cpu.dtb.wrAccesses                      156157                       # TLB accesses on write requests
system.cpu.dtb.wrMisses                           132                       # TLB misses on write requests
system.cpu.idle_fraction                            0                       # Percentage of idle cycles
system.cpu.itb.rdAccesses                           0                       # TLB accesses on read requests
system.cpu.itb.rdMisses                             0                       # TLB misses on read requests
system.cpu.itb.wrAccesses                     1332480                       # TLB accesses on write requests
system.cpu.itb.wrMisses                          1110                       # TLB misses on write requests
system.cpu.not_idle_fraction                        1                       # Percentage of non-idle cycles
system.cpu.numCycles                          5461031                       # number of cpu cycles simulated
system.cpu.numWorkItemsCompleted                    0                       # number of work items this cpu completed
system.cpu.numWorkItemsStarted                      0                       # number of work items this cpu started
system.cpu.num_busy_cycles                    5461031                       # Number of busy cycles
system.cpu.num_cc_register_reads              1099309                       # number of times the CC registers were read
system.cpu.num_cc_register_writes              688280                       # number of times the CC registers were written
system.cpu.num_conditional_control_insts       162376                       # number of instructions that are conditional controls
system.cpu.num_fp_alu_accesses                  25985                       # Number of float alu accesses
system.cpu.num_fp_insts                         25985                       # number of float instructions
system.cpu.num_fp_register_reads                33304                       # number of times the floating registers were read
system.cpu.num_fp_register_writes               10256                       # number of times the floating registers were written
system.cpu.num_func_calls                       26893                       # number of times a function call or return occured
system.cpu.num_idle_cycles                          0                       # Number of idle cycles
system.cpu.num_int_alu_accesses               1784264                       # Number of integer alu accesses
system.cpu.num_int_insts                      1784264                       # number of integer instructions
system.cpu.num_int_register_reads             3577239                       # number of times the integer registers were read
system.cpu.num_int_register_writes            1465055                       # number of times the integer registers were written
system.cpu.num_load_insts                      210660                       # Number of load instructions
system.cpu.num_mem_refs                        366815                       # number of memory refs
system.cpu.num_store_insts                     156155                       # Number of store instructions
system.cpu.num_vec_alu_accesses                     0                       # Number of vector alu accesses
system.cpu.num_vec_insts                            0                       # number of vector instructions
system.cpu.num_vec_register_reads                   0                       # number of times the vector registers were read
system.cpu.num_vec_register_writes                  0                       # number of times the vector registers were written
system.cpu.op_class::No_OpClass                 10803      0.60%      0.60% # Class of executed instruction
system.cpu.op_class::IntAlu                   1398688     77.51%     78.11% # Class of executed instruction
system.cpu.op_class::IntMult                     1046      0.06%     78.17% # Class of executed instruction
system.cpu.op_class::IntDiv                     17600      0.98%     79.14% # Class of executed instruction
system.cpu.op_class::FloatAdd                     477      0.03%     79.17% # Class of executed instruction
system.cpu.op_class::FloatCmp                       0      0.00%     79.17% # Class of executed instruction
system.cpu.op_class::FloatCvt                       0      0.00%     79.17% # Class of executed instruction
system.cpu.op_class::FloatMult                      0      0.00%     79.17% # Class of executed instruction
system.cpu.op_class::FloatMultAcc                   0      0.00%     79.17% # Class of executed instruction
system.cpu.op_class::FloatDiv                       0      0.00%     79.17% # Class of executed instruction
system.cpu.op_class::FloatMisc                      0      0.00%     79.17% # Class of executed instruction
system.cpu.op_class::FloatSqrt                      0      0.00%     79.17% # Class of executed instruction
system.cpu.op_class::SimdAdd                        8      0.00%     79.17% # Class of executed instruction
system.cpu.op_class::SimdAddAcc                     0      0.00%     79.17% # Class of executed instruction
system.cpu.op_class::SimdAlu                     2091      0.12%     79.28% # Class of executed instruction
system.cpu.op_class::SimdCmp                        0      0.00%     79.28% # Class of executed instruction
system.cpu.op_class::SimdCvt                     1832      0.10%     79.39% # Class of executed instruction
system.cpu.op_class::SimdMisc                    5173      0.29%     79.67% # Class of executed instruction
system.cpu.op_class::SimdMult                       0      0.00%     79.67% # Class of executed instruction
system.cpu.op_class::SimdMultAcc                    0      0.00%     79.67% # Class of executed instruction
system.cpu.op_class::SimdShift                      3      0.00%     79.67% # Class of executed instruction
system.cpu.op_class::SimdShiftAcc                   0      0.00%     79.67% # Class of executed instruction
system.cpu.op_class::SimdDiv                        0      0.00%     79.67% # Class of executed instruction
system.cpu.op_class::SimdSqrt                       0      0.00%     79.67% # Class of executed instruction
system.cpu.op_class::SimdFloatAdd                   0      0.00%     79.67% # Class of executed instruction
system.cpu.op_class::SimdFloatAlu                   0      0.00%     79.67% # Class of executed instruction
system.cpu.op_class::SimdFloatCmp                   0      0.00%     79.67% # Class of executed instruction
system.cpu.op_class::SimdFloatCvt                   0      0.00%     79.67% # Class of executed instruction
system.cpu.op_class::SimdFloatDiv                   0      0.00%     79.67% # Class of executed instruction
system.cpu.op_class::SimdFloatMisc                  0      0.00%     79.67% # Class of executed instruction
system.cpu.op_class::SimdFloatMult                  0      0.00%     79.67% # Class of executed instruction
system.cpu.op_class::SimdFloatMultAcc               0      0.00%     79.67% # Class of executed instruction
system.cpu.op_class::SimdFloatSqrt                  0      0.00%     79.67% # Class of executed instruction
system.cpu.op_class::SimdReduceAdd                  0      0.00%     79.67% # Class of executed instruction
system.cpu.op_class::SimdReduceAlu                  0      0.00%     79.67% # Class of executed instruction
system.cpu.op_class::SimdReduceCmp                  0      0.00%     79.67% # Class of executed instruction
system.cpu.op_class::SimdFloatReduceAdd             0      0.00%     79.67% # Class of executed instruction
system.cpu.op_class::SimdFloatReduceCmp             0      0.00%     79.67% # Class of executed instruction
system.cpu.op_class::SimdAes                        0      0.00%     79.67% # Class of executed instruction
system.cpu.op_class::SimdAesMix                     0      0.00%     79.67% # Class of executed instruction
system.cpu.op_class::SimdSha1Hash                   0      0.00%     79.67% # Class of executed instruction
system.cpu.op_class::SimdSha1Hash2                  0      0.00%     79.67% # Class of executed instruction
system.cpu.op_class::SimdSha256Hash                 0      0.00%     79.67% # Class of executed instruction
system.cpu.op_class::SimdSha256Hash2                0      0.00%     79.67% # Class of executed instruction
system.cpu.op_class::SimdShaSigma2                  0      0.00%     79.67% # Class of executed instruction
system.cpu.op_class::SimdShaSigma3                  0      0.00%     79.67% # Class of executed instruction
system.cpu.op_class::SimdPredAlu                    0      0.00%     79.67% # Class of executed instruction
system.cpu.op_class::MemRead                   208987     11.58%     91.25% # Class of executed instruction
system.cpu.op_class::MemWrite                  142260      7.88%     99.14% # Class of executed instruction
system.cpu.op_class::FloatMemRead                1673      0.09%     99.23% # Class of executed instruction
system.cpu.op_class::FloatMemWrite              13895      0.77%    100.00% # Class of executed instruction
system.cpu.op_class::IprAccess                      0      0.00%    100.00% # Class of executed instruction
system.cpu.op_class::InstPrefetch                   0      0.00%    100.00% # Class of executed instruction
system.cpu.op_class::total                    1804536                       # Class of executed instruction
system.cpu.workload.numSyscalls                    44                       # Number of system calls
system.dynamic_cache.flushTicks                     0                       # Ticks taken to flush
system.dynamic_cache.numFlushes                     0                       # Number of Flushes Taken
system.cache_small.demand_hits::.cpu.inst        20885                       # number of demand (read+write) hits
system.cache_small.demand_hits::.cpu.data         4459                       # number of demand (read+write) hits
system.cache_small.demand_hits::total           25344                       # number of demand (read+write) hits
system.cache_small.overall_hits::.cpu.inst        20885                       # number of overall hits
system.cache_small.overall_hits::.cpu.data         4459                       # number of overall hits
system.cache_small.overall_hits::total          25344                       # number of overall hits
system.cache_small.demand_misses::.cpu.inst        10941                       # number of demand (read+write) misses
system.cache_small.demand_misses::.cpu.data         6001                       # number of demand (read+write) misses
system.cache_small.demand_misses::total         16942                       # number of demand (read+write) misses
system.cache_small.overall_misses::.cpu.inst        10941                       # number of overall misses
system.cache_small.overall_misses::.cpu.data         6001                       # number of overall misses
system.cache_small.overall_misses::total        16942                       # number of overall misses
system.cache_small.demand_miss_latency::.cpu.inst    693568000                       # number of demand (read+write) miss cycles
system.cache_small.demand_miss_latency::.cpu.data    379515000                       # number of demand (read+write) miss cycles
system.cache_small.demand_miss_latency::total   1073083000                       # number of demand (read+write) miss cycles
system.cache_small.overall_miss_latency::.cpu.inst    693568000                       # number of overall miss cycles
system.cache_small.overall_miss_latency::.cpu.data    379515000                       # number of overall miss cycles
system.cache_small.overall_miss_latency::total   1073083000                       # number of overall miss cycles
system.cache_small.demand_accesses::.cpu.inst        31826                       # number of demand (read+write) accesses
system.cache_small.demand_accesses::.cpu.data        10460                       # number of demand (read+write) accesses
system.cache_small.demand_accesses::total        42286                       # number of demand (read+write) accesses
system.cache_small.overall_accesses::.cpu.inst        31826                       # number of overall (read+write) accesses
system.cache_small.overall_accesses::.cpu.data        10460                       # number of overall (read+write) accesses
system.cache_small.overall_accesses::total        42286                       # number of overall (read+write) accesses
system.cache_small.demand_miss_rate::.cpu.inst     0.343776                       # miss rate for demand accesses
system.cache_small.demand_miss_rate::.cpu.data     0.573709                       # miss rate for demand accesses
system.cache_small.demand_miss_rate::total     0.400653                       # miss rate for demand accesses
system.cache_small.overall_miss_rate::.cpu.inst     0.343776                       # miss rate for overall accesses
system.cache_small.overall_miss_rate::.cpu.data     0.573709                       # miss rate for overall accesses
system.cache_small.overall_miss_rate::total     0.400653                       # miss rate for overall accesses
system.cache_small.demand_avg_miss_latency::.cpu.inst 63391.646102                       # average overall miss latency
system.cache_small.demand_avg_miss_latency::.cpu.data 63241.959673                       # average overall miss latency
system.cache_small.demand_avg_miss_latency::total 63338.625900                       # average overall miss latency
system.cache_small.overall_avg_miss_latency::.cpu.inst 63391.646102                       # average overall miss latency
system.cache_small.overall_avg_miss_latency::.cpu.data 63241.959673                       # average overall miss latency
system.cache_small.overall_avg_miss_latency::total 63338.625900                       # average overall miss latency
system.cache_small.blocked_cycles::no_mshrs            0                       # number of cycles access was blocked
system.cache_small.blocked_cycles::no_targets            0                       # number of cycles access was blocked
system.cache_small.blocked::no_mshrs                0                       # number of cycles access was blocked
system.cache_small.blocked::no_targets              0                       # number of cycles access was blocked
system.cache_small.avg_blocked_cycles::no_mshrs          nan                       # average number of cycles each access was blocked
system.cache_small.avg_blocked_cycles::no_targets          nan                       # average number of cycles each access was blocked
system.cache_small.writebacks::.writebacks         4001                       # number of writebacks
system.cache_small.writebacks::total             4001                       # number of writebacks
system.cache_small.demand_mshr_misses::.cpu.inst        10941                       # number of demand (read+write) MSHR misses
system.cache_small.demand_mshr_misses::.cpu.data         6001                       # number of demand (read+write) MSHR misses
system.cache_small.demand_mshr_misses::total        16942                       # number of demand (read+write) MSHR misses
system.cache_small.overall_mshr_misses::.cpu.inst        10941                       # number of overall MSHR misses
system.cache_small.overall_mshr_misses::.cpu.data         6001                       # number of overall MSHR misses
system.cache_small.overall_mshr_misses::total        16942                       # number of overall MSHR misses
system.cache_small.demand_mshr_miss_latency::.cpu.inst    671686000                       # number of demand (read+write) MSHR miss cycles
system.cache_small.demand_mshr_miss_latency::.cpu.data    367513000                       # number of demand (read+write) MSHR miss cycles
system.cache_small.demand_mshr_miss_latency::total   1039199000                       # number of demand (read+write) MSHR miss cycles
system.cache_small.overall_mshr_miss_latency::.cpu.inst    671686000                       # number of overall MSHR miss cycles
system.cache_small.overall_mshr_miss_latency::.cpu.data    367513000                       # number of overall MSHR miss cycles
system.cache_small.overall_mshr_miss_latency::total   1039199000                       # number of overall MSHR miss cycles
system.cache_small.demand_mshr_miss_rate::.cpu.inst     0.343776                       # mshr miss rate for demand accesses
system.cache_small.demand_mshr_miss_rate::.cpu.data     0.573709                       # mshr miss rate for demand accesses
system.cache_small.demand_mshr_miss_rate::total     0.400653                       # mshr miss rate for demand accesses
system.cache_small.overall_mshr_miss_rate::.cpu.inst     0.343776                       # mshr miss rate for overall accesses
system.cache_small.overall_mshr_miss_rate::.cpu.data     0.573709                       # mshr miss rate for overall accesses
system.cache_small.overall_mshr_miss_rate::total     0.400653                       # mshr miss rate for overall accesses
system.cache_small.demand_avg_mshr_miss_latency::.cpu.inst 61391.646102                       # average overall mshr miss latency
system.cache_small.demand_avg_mshr_miss_latency::.cpu.data 61241.959673                       # average overall mshr miss latency
system.cache_small.demand_avg_mshr_miss_latency::total 61338.625900                       # average overall mshr miss latency
system.cache_small.overall_avg_mshr_miss_latency::.cpu.inst 61391.646102                       # average overall mshr miss latency
system.cache_small.overall_avg_mshr_miss_latency::.cpu.data 61241.959673                       # average overall mshr miss latency
system.cache_small.overall_avg_mshr_miss_latency::total 61338.625900                       # average overall mshr miss latency
system.cache_small.replacements                 16888                       # number of replacements
system.cache_small.ReadReq_hits::.cpu.inst        20885                       # number of ReadReq hits
system.cache_small.ReadReq_hits::.cpu.data         4459                       # number of ReadReq hits
system.cache_small.ReadReq_hits::total          25344                       # number of ReadReq hits
system.cache_small.ReadReq_misses::.cpu.inst        10941                       # number of ReadReq misses
system.cache_small.ReadReq_misses::.cpu.data         6001                       # number of ReadReq misses
system.cache_small.ReadReq_misses::total        16942                       # number of ReadReq misses
system.cache_small.ReadReq_miss_latency::.cpu.inst    693568000                       # number of ReadReq miss cycles
system.cache_small.ReadReq_miss_latency::.cpu.data    379515000                       # number of ReadReq miss cycles
system.cache_small.ReadReq_miss_latency::total   1073083000                       # number of ReadReq miss cycles
system.cache_small.ReadReq_accesses::.cpu.inst        31826                       # number of ReadReq accesses(hits+misses)
system.cache_small.ReadReq_accesses::.cpu.data        10460                       # number of ReadReq accesses(hits+misses)
system.cache_small.ReadReq_accesses::total        42286                       # number of ReadReq accesses(hits+misses)
system.cache_small.ReadReq_miss_rate::.cpu.inst     0.343776                       # miss rate for ReadReq accesses
system.cache_small.ReadReq_miss_rate::.cpu.data     0.573709                       # miss rate for ReadReq accesses
system.cache_small.ReadReq_miss_rate::total     0.400653                       # miss rate for ReadReq accesses
system.cache_small.ReadReq_avg_miss_latency::.cpu.inst 63391.646102                       # average ReadReq miss latency
system.cache_small.ReadReq_avg_miss_latency::.cpu.data 63241.959673                       # average ReadReq miss latency
system.cache_small.ReadReq_avg_miss_latency::total 63338.625900                       # average ReadReq miss latency
system.cache_small.ReadReq_mshr_misses::.cpu.inst        10941                       # number of ReadReq MSHR misses
system.cache_small.ReadReq_mshr_misses::.cpu.data         6001                       # number of ReadReq MSHR misses
system.cache_small.ReadReq_mshr_misses::total        16942                       # number of ReadReq MSHR misses
system.cache_small.ReadReq_mshr_miss_latency::.cpu.inst    671686000                       # number of ReadReq MSHR miss cycles
system.cache_small.ReadReq_mshr_miss_latency::.cpu.data    367513000                       # number of ReadReq MSHR miss cycles
system.cache_small.ReadReq_mshr_miss_latency::total   1039199000                       # number of ReadReq MSHR miss cycles
system.cache_small.ReadReq_mshr_miss_rate::.cpu.inst     0.343776                       # mshr miss rate for ReadReq accesses
system.cache_small.ReadReq_mshr_miss_rate::.cpu.data     0.573709                       # mshr miss rate for ReadReq accesses
system.cache_small.ReadReq_mshr_miss_rate::total     0.400653                       # mshr miss rate for ReadReq accesses
system.cache_small.ReadReq_avg_mshr_miss_latency::.cpu.inst 61391.646102                       # average ReadReq mshr miss latency
system.cache_small.ReadReq_avg_mshr_miss_latency::.cpu.data 61241.959673                       # average ReadReq mshr miss latency
system.cache_small.ReadReq_avg_mshr_miss_latency::total 61338.625900                       # average ReadReq mshr miss latency
system.cache_small.WritebackDirty_hits::.writebacks         7570                       # number of WritebackDirty hits
system.cache_small.WritebackDirty_hits::total         7570                       # number of WritebackDirty hits
system.cache_small.WritebackDirty_accesses::.writebacks         7570                       # number of WritebackDirty accesses(hits+misses)
system.cache_small.WritebackDirty_accesses::total         7570                       # number of WritebackDirty accesses(hits+misses)
system.cache_small.power_state.pwrStateResidencyTicks::UNDEFINED   5461042000                       # Cumulative time (in ticks) in various power states
system.cache_small.tags.tagsinuse         1833.173094                       # Cycle average of tags in use
system.cache_small.tags.total_refs              41865                       # Total number of references to valid blocks.
system.cache_small.tags.sampled_refs            16888                       # Sample count of references to valid blocks.
system.cache_small.tags.avg_refs             2.478979                       # Average number of references to valid blocks.
system.cache_small.tags.warmup_cycle            76000                       # Cycle when the warmup percentage was hit.
system.cache_small.tags.occ_blocks::.writebacks   152.599926                       # Average occupied blocks per requestor
system.cache_small.tags.occ_blocks::.cpu.inst   664.850827                       # Average occupied blocks per requestor
system.cache_small.tags.occ_blocks::.cpu.data  1015.722341                       # Average occupied blocks per requestor
system.cache_small.tags.occ_percent::.writebacks     0.074512                       # Average percentage of cache occupancy
system.cache_small.tags.occ_percent::.cpu.inst     0.324634                       # Average percentage of cache occupancy
system.cache_small.tags.occ_percent::.cpu.data     0.495958                       # Average percentage of cache occupancy
system.cache_small.tags.occ_percent::total     0.895104                       # Average percentage of cache occupancy
system.cache_small.tags.occ_task_id_blocks::1024         2042                       # Occupied blocks per task id
system.cache_small.tags.age_task_id_blocks_1024::0           30                       # Occupied blocks per task id
system.cache_small.tags.age_task_id_blocks_1024::1          175                       # Occupied blocks per task id
system.cache_small.tags.age_task_id_blocks_1024::2          786                       # Occupied blocks per task id
system.cache_small.tags.age_task_id_blocks_1024::3         1051                       # Occupied blocks per task id
system.cache_small.tags.occ_task_id_percent::1024     0.997070                       # Percentage of cache occupancy per task id
system.cache_small.tags.tag_accesses            68786                       # Number of tag accesses
system.cache_small.tags.data_accesses           68786                       # Number of data accesses
system.cache_small.tags.power_state.pwrStateResidencyTicks::UNDEFINED   5461042000                       # Cumulative time (in ticks) in various power states
system.icache.demand_hits::.cpu.inst          1290556                       # number of demand (read+write) hits
system.icache.demand_hits::total              1290556                       # number of demand (read+write) hits
system.icache.overall_hits::.cpu.inst         1290556                       # number of overall hits
system.icache.overall_hits::total             1290556                       # number of overall hits
system.icache.demand_misses::.cpu.inst          41924                       # number of demand (read+write) misses
system.icache.demand_misses::total              41924                       # number of demand (read+write) misses
system.icache.overall_misses::.cpu.inst         41924                       # number of overall misses
system.icache.overall_misses::total             41924                       # number of overall misses
system.icache.demand_miss_latency::.cpu.inst   1429288000                       # number of demand (read+write) miss cycles
system.icache.demand_miss_latency::total   1429288000                       # number of demand (read+write) miss cycles
system.icache.overall_miss_latency::.cpu.inst   1429288000                       # number of overall miss cycles
system.icache.overall_miss_latency::total   1429288000                       # number of overall miss cycles
system.icache.demand_accesses::.cpu.inst      1332480                       # number of demand (read+write) accesses
system.icache.demand_accesses::total          1332480                       # number of demand (read+write) accesses
system.icache.overall_accesses::.cpu.inst      1332480                       # number of overall (read+write) accesses
system.icache.overall_accesses::total         1332480                       # number of overall (read+write) accesses
system.icache.demand_miss_rate::.cpu.inst     0.031463                       # miss rate for demand accesses
system.icache.demand_miss_rate::total        0.031463                       # miss rate for demand accesses
system.icache.overall_miss_rate::.cpu.inst     0.031463                       # miss rate for overall accesses
system.icache.overall_miss_rate::total       0.031463                       # miss rate for overall accesses
system.icache.demand_avg_miss_latency::.cpu.inst 34092.357599                       # average overall miss latency
system.icache.demand_avg_miss_latency::total 34092.357599                       # average overall miss latency
system.icache.overall_avg_miss_latency::.cpu.inst 34092.357599                       # average overall miss latency
system.icache.overall_avg_miss_latency::total 34092.357599                       # average overall miss latency
system.icache.blocked_cycles::no_mshrs              0                       # number of cycles access was blocked
system.icache.blocked_cycles::no_targets            0                       # number of cycles access was blocked
system.icache.blocked::no_mshrs                     0                       # number of cycles access was blocked
system.icache.blocked::no_targets                   0                       # number of cycles access was blocked
system.icache.avg_blocked_cycles::no_mshrs          nan                       # average number of cycles each access was blocked
system.icache.avg_blocked_cycles::no_targets          nan                       # average number of cycles each access was blocked
system.icache.demand_mshr_misses::.cpu.inst        41924                       # number of demand (read+write) MSHR misses
system.icache.demand_mshr_misses::total         41924                       # number of demand (read+write) MSHR misses
system.icache.overall_mshr_misses::.cpu.inst        41924                       # number of overall MSHR misses
system.icache.overall_mshr_misses::total        41924                       # number of overall MSHR misses
system.icache.demand_mshr_miss_latency::.cpu.inst   1345442000                       # number of demand (read+write) MSHR miss cycles
system.icache.demand_mshr_miss_latency::total   1345442000                       # number of demand (read+write) MSHR miss cycles
system.icache.overall_mshr_miss_latency::.cpu.inst   1345442000                       # number of overall MSHR miss cycles
system.icache.overall_mshr_miss_latency::total   1345442000                       # number of overall MSHR miss cycles
system.icache.demand_mshr_miss_rate::.cpu.inst     0.031463                       # mshr miss rate for demand accesses
system.icache.demand_mshr_miss_rate::total     0.031463                       # mshr miss rate for demand accesses
system.icache.overall_mshr_miss_rate::.cpu.inst     0.031463                       # mshr miss rate for overall accesses
system.icache.overall_mshr_miss_rate::total     0.031463                       # mshr miss rate for overall accesses
system.icache.demand_avg_mshr_miss_latency::.cpu.inst 32092.405305                       # average overall mshr miss latency
system.icache.demand_avg_mshr_miss_latency::total 32092.405305                       # average overall mshr miss latency
system.icache.overall_avg_mshr_miss_latency::.cpu.inst 32092.405305                       # average overall mshr miss latency
system.icache.overall_avg_mshr_miss_latency::total 32092.405305                       # average overall mshr miss latency
system.icache.replacements                      41667                       # number of replacements
system.icache.ReadReq_hits::.cpu.inst         1290556                       # number of ReadReq hits
system.icache.ReadReq_hits::total             1290556                       # number of ReadReq hits
system.icache.ReadReq_misses::.cpu.inst         41924                       # number of ReadReq misses
system.icache.ReadReq_misses::total             41924                       # number of ReadReq misses
system.icache.ReadReq_miss_latency::.cpu.inst   1429288000                       # number of ReadReq miss cycles
system.icache.ReadReq_miss_latency::total   1429288000                       # number of ReadReq miss cycles
system.icache.ReadReq_accesses::.cpu.inst      1332480                       # number of ReadReq accesses(hits+misses)
system.icache.ReadReq_accesses::total         1332480                       # number of ReadReq accesses(hits+misses)
system.icache.ReadReq_miss_rate::.cpu.inst     0.031463                       # miss rate for ReadReq accesses
system.icache.ReadReq_miss_rate::total       0.031463                       # miss rate for ReadReq accesses
system.icache.ReadReq_avg_miss_latency::.cpu.inst 34092.357599                       # average ReadReq miss latency
system.icache.ReadReq_avg_miss_latency::total 34092.357599                       # average ReadReq miss latency
system.icache.ReadReq_mshr_misses::.cpu.inst        41924                       # number of ReadReq MSHR misses
system.icache.ReadReq_mshr_misses::total        41924                       # number of ReadReq MSHR misses
system.icache.ReadReq_mshr_miss_latency::.cpu.inst   1345442000                       # number of ReadReq MSHR miss cycles
system.icache.ReadReq_mshr_miss_latency::total   1345442000                       # number of ReadReq MSHR miss cycles
system.icache.ReadReq_mshr_miss_rate::.cpu.inst     0.031463                       # mshr miss rate for ReadReq accesses
system.icache.ReadReq_mshr_miss_rate::total     0.031463                       # mshr miss rate for ReadReq accesses
system.icache.ReadReq_avg_mshr_miss_latency::.cpu.inst 32092.405305                       # average ReadReq mshr miss latency
system.icache.ReadReq_avg_mshr_miss_latency::total 32092.405305                       # average ReadReq mshr miss latency
system.icache.power_state.pwrStateResidencyTicks::UNDEFINED   5461042000                       # Cumulative time (in ticks) in various power states
system.icache.tags.tagsinuse               251.263251                       # Cycle average of tags in use
system.icache.tags.total_refs                 1322210                       # Total number of references to valid blocks.
system.icache.tags.sampled_refs                 41667                       # Sample count of references to valid blocks.
system.icache.tags.avg_refs                 31.732786                       # Average number of references to valid blocks.
system.icache.tags.warmup_cycle                 82000                       # Cycle when the warmup percentage was hit.
system.icache.tags.occ_blocks::.cpu.inst   251.263251                       # Average occupied blocks per requestor
system.icache.tags.occ_percent::.cpu.inst     0.981497                       # Average percentage of cache occupancy
system.icache.tags.occ_percent::total        0.981497                       # Average percentage of cache occupancy
system.icache.tags.occ_task_id_blocks::1024          256                       # Occupied blocks per task id
system.icache.tags.age_task_id_blocks_1024::0           54                       # Occupied blocks per task id
system.icache.tags.age_task_id_blocks_1024::1          150                       # Occupied blocks per task id
system.icache.tags.age_task_id_blocks_1024::2           47                       # Occupied blocks per task id
system.icache.tags.age_task_id_blocks_1024::3            5                       # Occupied blocks per task id
system.icache.tags.occ_task_id_percent::1024            1                       # Percentage of cache occupancy per task id
system.icache.tags.tag_accesses               1374403                       # Number of tag accesses
system.icache.tags.data_accesses              1374403                       # Number of data accesses
system.icache.tags.power_state.pwrStateResidencyTicks::UNDEFINED   5461042000                       # Cumulative time (in ticks) in various power states
system.membus.trans_dist::ReadReq               16942                       # Transaction distribution
system.membus.trans_dist::ReadResp              16942                       # Transaction distribution
system.membus.trans_dist::WritebackDirty         4001                       # Transaction distribution
system.membus.pkt_count_system.cache_small.mem_side::system.mem_ctrl.port        37885                       # Packet count per connected master and slave (bytes)
system.membus.pkt_count_system.cache_small.mem_side::total        37885                       # Packet count per connected master and slave (bytes)
system.membus.pkt_count::total                  37885                       # Packet count per connected master and slave (bytes)
system.membus.pkt_size_system.cache_small.mem_side::system.mem_ctrl.port      1340352                       # Cumulative packet size per connected master and slave (bytes)
system.membus.pkt_size_system.cache_small.mem_side::total      1340352                       # Cumulative packet size per connected master and slave (bytes)
system.membus.pkt_size::total                 1340352                       # Cumulative packet size per connected master and slave (bytes)
system.membus.reqLayer2.occupancy            36947000                       # Layer occupancy (ticks)
system.membus.reqLayer2.utilization               0.7                       # Layer utilization (%)
system.membus.respLayer1.occupancy           91150000                       # Layer occupancy (ticks)
system.membus.respLayer1.utilization              1.7                       # Layer utilization (%)
system.membus.power_state.pwrStateResidencyTicks::UNDEFINED   5461042000                       # Cumulative time (in ticks) in various power states
system.mem_ctrl.bytes_read::.cpu.inst          700224                       # Number of bytes read from this memory
system.mem_ctrl.bytes_read::.cpu.data          384064                       # Number of bytes read from this memory
system.mem_ctrl.bytes_read::total             1084288                       # Number of bytes read from this memory
system.mem_ctrl.bytes_inst_read::.cpu.inst       700224                       # Number of instructions bytes read from this memory
system.mem_ctrl.bytes_inst_read::total         700224                       # Number of instructions bytes read from this memory
system.mem_ctrl.bytes_written::.writebacks       256064                       # Number of bytes written to this memory
system.mem_ctrl.bytes_written::total           256064                       # Number of bytes written to this memory
system.mem_ctrl.num_reads::.cpu.inst            10941                       # Number of read requests responded to by this memory
system.mem_ctrl.num_reads::.cpu.data             6001                       # Number of read requests responded to by this memory
system.mem_ctrl.num_reads::total                16942                       # Number of read requests responded to by this memory
system.mem_ctrl.num_writes::.writebacks          4001                       # Number of write requests responded to by this memory
system.mem_ctrl.num_writes::total                4001                       # Number of write requests responded to by this memory
system.mem_ctrl.bw_read::.cpu.inst          128221684                       # Total read bandwidth from this memory (bytes/s)
system.mem_ctrl.bw_read::.cpu.data           70327970                       # Total read bandwidth from this memory (bytes/s)
system.mem_ctrl.bw_read::total              198549654                       # Total read bandwidth from this memory (bytes/s)
system.mem_ctrl.bw_inst_read::.cpu.inst     128221684                       # Instruction read bandwidth from this memory (bytes/s)
system.mem_ctrl.bw_inst_read::total         128221684                       # Instruction read bandwidth from this memory (bytes/s)
system.mem_ctrl.bw_write::.writebacks        46889220                       # Write bandwidth from this memory (bytes/s)
system.mem_ctrl.bw_write::total              46889220                       # Write bandwidth from this memory (bytes/s)
system.mem_ctrl.bw_total::.writebacks        46889220                       # Total bandwidth to/from this memory (bytes/s)
system.mem_ctrl.bw_total::.cpu.inst         128221684                       # Total bandwidth to/from this memory (bytes/s)
system.mem_ctrl.bw_total::.cpu.data          70327970                       # Total bandwidth to/from this memory (bytes/s)
system.mem_ctrl.bw_total::total             245438874                       # Total bandwidth to/from this memory (bytes/s)
system.mem_ctrl.avgPriority_.writebacks::samples      3823.00                       # Average QoS priority value for accepted requests
system.mem_ctrl.avgPriority_.cpu.inst::samples     10941.00                       # Average QoS priority value for accepted requests
system.mem_ctrl.avgPriority_.cpu.data::samples      5782.00                       # Average QoS priority value for accepted requests
system.mem_ctrl.priorityMinLatency       0.000000018750                       # per QoS priority minimum request to response latency (s)
system.mem_ctrl.priorityMaxLatency       0.000889864500                       # per QoS priority maximum request to response latency (s)
system.mem_ctrl.numReadWriteTurnArounds           223                       # Number of turnarounds from READ to WRITE
system.mem_ctrl.numWriteReadTurnArounds           223                       # Number of turnarounds from WRITE to READ
system.mem_ctrl.numStayReadState                38712                       # Number of times bus staying in READ state
system.mem_ctrl.numStayWriteState                3584                       # Number of times bus staying in WRITE state
system.mem_ctrl.readReqs                        16942                       # Number of read requests accepted
system.mem_ctrl.writeReqs                        4001                       # Number of write requests accepted
system.mem_ctrl.readBursts                      16942                       # Number of DRAM read bursts, including those serviced by the write queue
system.mem_ctrl.writeBursts                      4001                       # Number of DRAM write bursts, including those merged in the write queue
system.mem_ctrl.servicedByWrQ                     219                       # Number of DRAM read bursts serviced by the write queue
system.mem_ctrl.mergedWrBursts                    178                       # Number of DRAM write bursts merged with an existing one
system.mem_ctrl.neitherReadNorWriteReqs             0                       # Number of requests that are neither read nor write
system.mem_ctrl.perBankRdBursts::0               1741                       # Per bank write bursts
system.mem_ctrl.perBankRdBursts::1               1101                       # Per bank write bursts
system.mem_ctrl.perBankRdBursts::2                439                       # Per bank write bursts
system.mem_ctrl.perBankRdBursts::3                746                       # Per bank write bursts
system.mem_ctrl.perBankRdBursts::4                953                       # Per bank write bursts
system.mem_ctrl.perBankRdBursts::5               1287                       # Per bank write bursts
system.mem_ctrl.perBankRdBursts::6               1261                       # Per bank write bursts
system.mem_ctrl.perBankRdBursts::7                727                       # Per bank write bursts
system.mem_ctrl.perBankRdBursts::8                777                       # Per bank write bursts
system.mem_ctrl.perBankRdBursts::9                474                       # Per bank write bursts
system.mem_ctrl.perBankRdBursts::10              2533                       # Per bank write bursts
system.mem_ctrl.perBankRdBursts::11              1158                       # Per bank write bursts
system.mem_ctrl.perBankRdBursts::12              1404                       # Per bank write bursts
system.mem_ctrl.perBankRdBursts::13               686                       # Per bank write bursts
system.mem_ctrl.perBankRdBursts::14               634                       # Per bank write bursts
system.mem_ctrl.perBankRdBursts::15               802                       # Per bank write bursts
system.mem_ctrl.perBankWrBursts::0                225                       # Per bank write bursts
system.mem_ctrl.perBankWrBursts::1                344                       # Per bank write bursts
system.mem_ctrl.perBankWrBursts::2                145                       # Per bank write bursts
system.mem_ctrl.perBankWrBursts::3                135                       # Per bank write bursts
system.mem_ctrl.perBankWrBursts::4                235                       # Per bank write bursts
system.mem_ctrl.perBankWrBursts::5                303                       # Per bank write bursts
system.mem_ctrl.perBankWrBursts::6                296                       # Per bank write bursts
system.mem_ctrl.perBankWrBursts::7                178                       # Per bank write bursts
system.mem_ctrl.perBankWrBursts::8                215                       # Per bank write bursts
system.mem_ctrl.perBankWrBursts::9                154                       # Per bank write bursts
system.mem_ctrl.perBankWrBursts::10               357                       # Per bank write bursts
system.mem_ctrl.perBankWrBursts::11               246                       # Per bank write bursts
system.mem_ctrl.perBankWrBursts::12               338                       # Per bank write bursts
system.mem_ctrl.perBankWrBursts::13               207                       # Per bank write bursts
system.mem_ctrl.perBankWrBursts::14               214                       # Per bank write bursts
system.mem_ctrl.perBankWrBursts::15               206                       # Per bank write bursts
system.mem_ctrl.avgRdQLen                        1.00                       # Average read queue length when enqueuing
system.mem_ctrl.avgWrQLen                       24.67                       # Average write queue length when enqueuing
system.mem_ctrl.totQLat                     196182250                       # Total ticks spent queuing
system.mem_ctrl.totBusLat                    83615000                       # Total ticks spent in databus transfers
system.mem_ctrl.totMemAccLat                509738500                       # Total ticks spent from burst creation until serviced by the DRAM
system.mem_ctrl.avgQLat                      11731.28                       # Average queueing delay per DRAM burst
system.mem_ctrl.avgBusLat                     5000.00                       # Average bus latency per DRAM burst
system.mem_ctrl.avgMemAccLat                 30481.28                       # Average memory access latency per DRAM burst
system.mem_ctrl.numRdRetry                          0                       # Number of times read queue was full causing retry
system.mem_ctrl.numWrRetry                          0                       # Number of times write queue was full causing retry
system.mem_ctrl.readRowHits                      9922                       # Number of row buffer hits during reads
system.mem_ctrl.writeRowHits                     2716                       # Number of row buffer hits during writes
system.mem_ctrl.readRowHitRate                  59.33                       # Row buffer hit rate for reads
system.mem_ctrl.writeRowHitRate                 71.04                       # Row buffer hit rate for writes
system.mem_ctrl.readPktSize::0                      0                       # Read request sizes (log2)
system.mem_ctrl.readPktSize::1                      0                       # Read request sizes (log2)
system.mem_ctrl.readPktSize::2                      0                       # Read request sizes (log2)
system.mem_ctrl.readPktSize::3                      0                       # Read request sizes (log2)
system.mem_ctrl.readPktSize::4                      0                       # Read request sizes (log2)
system.mem_ctrl.readPktSize::5                      0                       # Read request sizes (log2)
system.mem_ctrl.readPktSize::6                  16942                       # Read request sizes (log2)
system.mem_ctrl.writePktSize::0                     0                       # Write request sizes (log2)
system.mem_ctrl.writePktSize::1                     0                       # Write request sizes (log2)
system.mem_ctrl.writePktSize::2                     0                       # Write request sizes (log2)
system.mem_ctrl.writePktSize::3                     0                       # Write request sizes (log2)
system.mem_ctrl.writePktSize::4                     0                       # Write request sizes (log2)
system.mem_ctrl.writePktSize::5                     0                       # Write request sizes (log2)
system.mem_ctrl.writePktSize::6                  4001                       # Write request sizes (log2)
system.mem_ctrl.rdQLenPdf::0                    16718                       # What read queue length does an incoming req see
system.mem_ctrl.rdQLenPdf::1                        5                       # What read queue length does an incoming req see
system.mem_ctrl.rdQLenPdf::2                        0                       # What read queue length does an incoming req see
system.mem_ctrl.rdQLenPdf::3                        0                       # What read queue length does an incoming req see
system.mem_ctrl.rdQLenPdf::4                        0                       # What read queue length does an incoming req see
system.mem_ctrl.rdQLenPdf::5                        0                       # What read queue length does an incoming req see
system.mem_ctrl.rdQLenPdf::6                        0                       # What read queue length does an incoming req see
system.mem_ctrl.rdQLenPdf::7                        0                       # What read queue length does an incoming req see
system.mem_ctrl.rdQLenPdf::8                        0                       # What read queue length does an incoming req see
system.mem_ctrl.rdQLenPdf::9                        0                       # What read queue length does an incoming req see
system.mem_ctrl.rdQLenPdf::10                       0                       # What read queue length does an incoming req see
system.mem_ctrl.rdQLenPdf::11                       0                       # What read queue length does an incoming req see
system.mem_ctrl.rdQLenPdf::12                       0                       # What read queue length does an incoming req see
system.mem_ctrl.rdQLenPdf::13                       0                       # What read queue length does an incoming req see
system.mem_ctrl.rdQLenPdf::14                       0                       # What read queue length does an incoming req see
system.mem_ctrl.rdQLenPdf::15                       0                       # What read queue length does an incoming req see
system.mem_ctrl.rdQLenPdf::16                       0                       # What read queue length does an incoming req see
system.mem_ctrl.rdQLenPdf::17                       0                       # What read queue length does an incoming req see
system.mem_ctrl.rdQLenPdf::18                       0                       # What read queue length does an incoming req see
system.mem_ctrl.rdQLenPdf::19                       0                       # What read queue length does an incoming req see
system.mem_ctrl.rdQLenPdf::20                       0                       # What read queue length does an incoming req see
system.mem_ctrl.rdQLenPdf::21                       0                       # What read queue length does an incoming req see
system.mem_ctrl.rdQLenPdf::22                       0                       # What read queue length does an incoming req see
system.mem_ctrl.rdQLenPdf::23                       0                       # What read queue length does an incoming req see
system.mem_ctrl.rdQLenPdf::24                       0                       # What read queue length does an incoming req see
system.mem_ctrl.rdQLenPdf::25                       0                       # What read queue length does an incoming req see
system.mem_ctrl.rdQLenPdf::26                       0                       # What read queue length does an incoming req see
system.mem_ctrl.rdQLenPdf::27                       0                       # What read queue length does an incoming req see
system.mem_ctrl.rdQLenPdf::28                       0                       # What read queue length does an incoming req see
system.mem_ctrl.rdQLenPdf::29                       0                       # What read queue length does an incoming req see
system.mem_ctrl.rdQLenPdf::30                       0                       # What read queue length does an incoming req see
system.mem_ctrl.rdQLenPdf::31                       0                       # What read queue length does an incoming req see
system.mem_ctrl.wrQLenPdf::0                        1                       # What write queue length does an incoming req see
system.mem_ctrl.wrQLenPdf::1                        1                       # What write queue length does an incoming req see
system.mem_ctrl.wrQLenPdf::2                        1                       # What write queue length does an incoming req see
system.mem_ctrl.wrQLenPdf::3                        1                       # What write queue length does an incoming req see
system.mem_ctrl.wrQLenPdf::4                        1                       # What write queue length does an incoming req see
system.mem_ctrl.wrQLenPdf::5                        1                       # What write queue length does an incoming req see
system.mem_ctrl.wrQLenPdf::6                        1                       # What write queue length does an incoming req see
system.mem_ctrl.wrQLenPdf::7                        1                       # What write queue length does an incoming req see
system.mem_ctrl.wrQLenPdf::8                        1                       # What write queue length does an incoming req see
system.mem_ctrl.wrQLenPdf::9                        1                       # What write queue length does an incoming req see
system.mem_ctrl.wrQLenPdf::10                       1                       # What write queue length does an incoming req see
system.mem_ctrl.wrQLenPdf::11                       1                       # What write queue length does an incoming req see
system.mem_ctrl.wrQLenPdf::12                       1                       # What write queue length does an incoming req see
system.mem_ctrl.wrQLenPdf::13                       1                       # What write queue length does an incoming req see
system.mem_ctrl.wrQLenPdf::14                       1                       # What write queue length does an incoming req see
system.mem_ctrl.wrQLenPdf::15                     110                       # What write queue length does an incoming req see
system.mem_ctrl.wrQLenPdf::16                     119                       # What write queue length does an incoming req see
system.mem_ctrl.wrQLenPdf::17                     223                       # What write queue length does an incoming req see
system.mem_ctrl.wrQLenPdf::18                     225                       # What write queue length does an incoming req see
system.mem_ctrl.wrQLenPdf::19                     225                       # What write queue length does an incoming req see
system.mem_ctrl.wrQLenPdf::20                     224                       # What write queue length does an incoming req see
system.mem_ctrl.wrQLenPdf::21                     224                       # What write queue length does an incoming req see
system.mem_ctrl.wrQLenPdf::22                     224                       # What write queue length does an incoming req see
system.mem_ctrl.wrQLenPdf::23                     224                       # What write queue length does an incoming req see
system.mem_ctrl.wrQLenPdf::24                     224                       # What write queue length does an incoming req see
system.mem_ctrl.wrQLenPdf::25                     223                       # What write queue length does an incoming req see
system.mem_ctrl.wrQLenPdf::26                     223                       # What write queue length does an incoming req see
system.mem_ctrl.wrQLenPdf::27                     223                       # What write queue length does an incoming req see
system.mem_ctrl.wrQLenPdf::28                     224                       # What write queue length does an incoming req see
system.mem_ctrl.wrQLenPdf::29                     224                       # What write queue length does an incoming req see
system.mem_ctrl.wrQLenPdf::30                     223                       # What write queue length does an incoming req see
system.mem_ctrl.wrQLenPdf::31                     223                       # What write queue length does an incoming req see
system.mem_ctrl.wrQLenPdf::32                     223                       # What write queue length does an incoming req see
system.mem_ctrl.wrQLenPdf::33                       0                       # What write queue length does an incoming req see
system.mem_ctrl.wrQLenPdf::34                       0                       # What write queue length does an incoming req see
system.mem_ctrl.wrQLenPdf::35                       0                       # What write queue length does an incoming req see
system.mem_ctrl.wrQLenPdf::36                       0                       # What write queue length does an incoming req see
system.mem_ctrl.wrQLenPdf::37                       0                       # What write queue length does an incoming req see
system.mem_ctrl.wrQLenPdf::38                       0                       # What write queue length does an incoming req see
system.mem_ctrl.wrQLenPdf::39                       0                       # What write queue length does an incoming req see
system.mem_ctrl.wrQLenPdf::40                       0                       # What write queue length does an incoming req see
system.mem_ctrl.wrQLenPdf::41                       0                       # What write queue length does an incoming req see
system.mem_ctrl.wrQLenPdf::42                       0                       # What write queue length does an incoming req see
system.mem_ctrl.wrQLenPdf::43                       0                       # What write queue length does an incoming req see
system.mem_ctrl.wrQLenPdf::44                       0                       # What write queue length does an incoming req see
system.mem_ctrl.wrQLenPdf::45                       0                       # What write queue length does an incoming req see
system.mem_ctrl.wrQLenPdf::46                       0                       # What write queue length does an incoming req see
system.mem_ctrl.wrQLenPdf::47                       0                       # What write queue length does an incoming req see
system.mem_ctrl.wrQLenPdf::48                       0                       # What write queue length does an incoming req see
system.mem_ctrl.wrQLenPdf::49                       0                       # What write queue length does an incoming req see
system.mem_ctrl.wrQLenPdf::50                       0                       # What write queue length does an incoming req see
system.mem_ctrl.wrQLenPdf::51                       0                       # What write queue length does an incoming req see
system.mem_ctrl.wrQLenPdf::52                       0                       # What write queue length does an incoming req see
system.mem_ctrl.wrQLenPdf::53                       0                       # What write queue length does an incoming req see
system.mem_ctrl.wrQLenPdf::54                       0                       # What write queue length does an incoming req see
system.mem_ctrl.wrQLenPdf::55                       0                       # What write queue length does an incoming req see
system.mem_ctrl.wrQLenPdf::56                       0                       # What write queue length does an incoming req see
system.mem_ctrl.wrQLenPdf::57                       0                       # What write queue length does an incoming req see
system.mem_ctrl.wrQLenPdf::58                       0                       # What write queue length does an incoming req see
system.mem_ctrl.wrQLenPdf::59                       0                       # What write queue length does an incoming req see
system.mem_ctrl.wrQLenPdf::60                       0                       # What write queue length does an incoming req see
system.mem_ctrl.wrQLenPdf::61                       0                       # What write queue length does an incoming req see
system.mem_ctrl.wrQLenPdf::62                       0                       # What write queue length does an incoming req see
system.mem_ctrl.wrQLenPdf::63                       0                       # What write queue length does an incoming req see
system.mem_ctrl.bytesPerActivate::samples         7879                       # Bytes accessed per row activation
system.mem_ctrl.bytesPerActivate::mean     166.632314                       # Bytes accessed per row activation
system.mem_ctrl.bytesPerActivate::gmean    121.079938                       # Bytes accessed per row activation
system.mem_ctrl.bytesPerActivate::stdev    173.539371                       # Bytes accessed per row activation
system.mem_ctrl.bytesPerActivate::0-127          3724     47.26%     47.26% # Bytes accessed per row activation
system.mem_ctrl.bytesPerActivate::128-255         2642     33.53%     80.80% # Bytes accessed per row activation
system.mem_ctrl.bytesPerActivate::256-383          758      9.62%     90.42% # Bytes accessed per row activation
system.mem_ctrl.bytesPerActivate::384-511          326      4.14%     94.56% # Bytes accessed per row activation
system.mem_ctrl.bytesPerActivate::512-639          162      2.06%     96.61% # Bytes accessed per row activation
system.mem_ctrl.bytesPerActivate::640-767           72      0.91%     97.53% # Bytes accessed per row activation
system.mem_ctrl.bytesPerActivate::768-895           39      0.49%     98.02% # Bytes accessed per row activation
system.mem_ctrl.bytesPerActivate::896-1023           36      0.46%     98.48% # Bytes accessed per row activation
system.mem_ctrl.bytesPerActivate::1024-1151          120      1.52%    100.00% # Bytes accessed per row activation
system.mem_ctrl.bytesPerActivate::total          7879                       # Bytes accessed per row activation
system.mem_ctrl.rdPerTurnAround::samples          223                       # Reads before turning the bus around for writes
system.mem_ctrl.rdPerTurnAround::mean       74.798206                       # Reads before turning the bus around for writes
system.mem_ctrl.rdPerTurnAround::gmean      57.166844                       # Reads before turning the bus around for writes
system.mem_ctrl.rdPerTurnAround::stdev     113.519295                       # Reads before turning the bus around for writes
system.mem_ctrl.rdPerTurnAround::0-63             127     56.95%     56.95% # Reads before turning the bus around for writes
system.mem_ctrl.rdPerTurnAround::64-127            84     37.67%     94.62% # Reads before turning the bus around for writes
system.mem_ctrl.rdPerTurnAround::128-191            3      1.35%     95.96% # Reads before turning the bus around for writes
system.mem_ctrl.rdPerTurnAround::192-255            4      1.79%     97.76% # Reads before turning the bus around for writes
system.mem_ctrl.rdPerTurnAround::256-319            2      0.90%     98.65% # Reads before turning the bus around for writes
system.mem_ctrl.rdPerTurnAround::320-383            1      0.45%     99.10% # Reads before turning the bus around for writes
system.mem_ctrl.rdPerTurnAround::384-447            1      0.45%     99.55% # Reads before turning the bus around for writes
system.mem_ctrl.rdPerTurnAround::1536-1599            1      0.45%    100.00% # Reads before turning the bus around for writes
system.mem_ctrl.rdPerTurnAround::total            223                       # Reads before turning the bus around for writes
system.mem_ctrl.wrPerTurnAround::samples          223                       # Writes before turning the bus around for reads
system.mem_ctrl.wrPerTurnAround::mean       17.031390                       # Writes before turning the bus around for reads
system.mem_ctrl.wrPerTurnAround::gmean      17.002050                       # Writes before turning the bus around for reads
system.mem_ctrl.wrPerTurnAround::stdev       1.001756                       # Writes before turning the bus around for reads
system.mem_ctrl.wrPerTurnAround::16               105     47.09%     47.09% # Writes before turning the bus around for reads
system.mem_ctrl.wrPerTurnAround::17                 9      4.04%     51.12% # Writes before turning the bus around for reads
system.mem_ctrl.wrPerTurnAround::18               106     47.53%     98.65% # Writes before turning the bus around for reads
system.mem_ctrl.wrPerTurnAround::19                 3      1.35%    100.00% # Writes before turning the bus around for reads
system.mem_ctrl.wrPerTurnAround::total            223                       # Writes before turning the bus around for reads
system.mem_ctrl.bytesReadDRAM                 1070272                       # Total number of bytes read from DRAM
system.mem_ctrl.bytesReadWrQ                    14016                       # Total number of bytes read from write queue
system.mem_ctrl.bytesWritten                   243072                       # Total number of bytes written to DRAM
system.mem_ctrl.bytesReadSys                  1084288                       # Total read bytes from the system interface side
system.mem_ctrl.bytesWrittenSys                256064                       # Total written bytes from the system interface side
system.mem_ctrl.avgRdBW                        195.98                       # Average DRAM read bandwidth in MiByte/s
system.mem_ctrl.avgWrBW                         44.51                       # Average achieved write bandwidth in MiByte/s
system.mem_ctrl.avgRdBWSys                     198.55                       # Average system read bandwidth in MiByte/s
system.mem_ctrl.avgWrBWSys                      46.89                       # Average system write bandwidth in MiByte/s
system.mem_ctrl.peakBW                       12800.00                       # Theoretical peak bandwidth in MiByte/s
system.mem_ctrl.busUtil                          1.88                       # Data bus utilization in percentage
system.mem_ctrl.busUtilRead                      1.53                       # Data bus utilization in percentage for reads
system.mem_ctrl.busUtilWrite                     0.35                       # Data bus utilization in percentage for writes
system.mem_ctrl.totGap                     5459605000                       # Total gap between requests
system.mem_ctrl.avgGap                      260688.77                       # Average gap between requests
system.mem_ctrl.masterReadBytes::.cpu.inst       700224                       # Per-master bytes read from memory
system.mem_ctrl.masterReadBytes::.cpu.data       370048                       # Per-master bytes read from memory
system.mem_ctrl.masterWriteBytes::.writebacks       243072                       # Per-master bytes write to memory
system.mem_ctrl.masterReadRate::.cpu.inst 128221683.700656384230                       # Per-master bytes read from memory rate (Bytes/sec)
system.mem_ctrl.masterReadRate::.cpu.data 67761427.214806258678                       # Per-master bytes read from memory rate (Bytes/sec)
system.mem_ctrl.masterWriteRate::.writebacks 44510186.883748561144                       # Per-master bytes write to memory rate (Bytes/sec)
system.mem_ctrl.masterReadAccesses::.cpu.inst        10941                       # Per-master read serviced memory accesses
system.mem_ctrl.masterReadAccesses::.cpu.data         6001                       # Per-master read serviced memory accesses
system.mem_ctrl.masterWriteAccesses::.writebacks         4001                       # Per-master write serviced memory accesses
system.mem_ctrl.masterReadTotalLat::.cpu.inst    328369750                       # Per-master read total memory access latency
system.mem_ctrl.masterReadTotalLat::.cpu.data    181368750                       # Per-master read total memory access latency
system.mem_ctrl.masterWriteTotalLat::.writebacks 128007231250                       # Per-master write total memory access latency
system.mem_ctrl.masterReadAvgLat::.cpu.inst     30012.77                       # Per-master read average memory access latency
system.mem_ctrl.masterReadAvgLat::.cpu.data     30223.09                       # Per-master read average memory access latency
system.mem_ctrl.masterWriteAvgLat::.writebacks  31993809.36                       # Per-master write average memory access latency
system.mem_ctrl.pageHitRate                     61.51                       # Row buffer hit rate, read and write combined
system.mem_ctrl.rank1.actEnergy              30180780                       # Energy for activate commands per rank (pJ)
system.mem_ctrl.rank1.preEnergy              16037670                       # Energy for precharge commands per rank (pJ)
system.mem_ctrl.rank1.readEnergy             60461520                       # Energy for read commands per rank (pJ)
system.mem_ctrl.rank1.writeEnergy            10111140                       # Energy for write commands per rank (pJ)
system.mem_ctrl.rank1.refreshEnergy      430862640.000000                       # Energy for refresh commands per rank (pJ)
system.mem_ctrl.rank1.actBackEnergy        2131793160                       # Energy for active background per rank (pJ)
system.mem_ctrl.rank1.preBackEnergy         301846080                       # Energy for precharge background per rank (pJ)
system.mem_ctrl.rank1.actPowerDownEnergy            0                       # Energy for active power-down per rank (pJ)
system.mem_ctrl.rank1.prePowerDownEnergy            0                       # Energy for precharge power-down per rank (pJ)
system.mem_ctrl.rank1.selfRefreshEnergy             0                       # Energy for self refresh per rank (pJ)
system.mem_ctrl.rank1.totalEnergy          2981292990                       # Total energy per rank (pJ)
system.mem_ctrl.rank1.averagePower         545.920172                       # Core power per rank (mW)
system.mem_ctrl.rank1.totalIdleTime                 0                       # Total Idle time Per DRAM Rank
system.mem_ctrl.rank1.memoryStateTime::IDLE    763303500                       # Time in different power states
system.mem_ctrl.rank1.memoryStateTime::REF    182260000                       # Time in different power states
system.mem_ctrl.rank1.memoryStateTime::SREF            0                       # Time in different power states
system.mem_ctrl.rank1.memoryStateTime::PRE_PDN            0                       # Time in different power states
system.mem_ctrl.rank1.memoryStateTime::ACT   4515478500                       # Time in different power states
system.mem_ctrl.rank1.memoryStateTime::ACT_PDN            0                       # Time in different power states
system.mem_ctrl.rank0.actEnergy              26103840                       # Energy for activate commands per rank (pJ)
system.mem_ctrl.rank0.preEnergy              13863135                       # Energy for precharge commands per rank (pJ)
system.mem_ctrl.rank0.readEnergy             58940700                       # Energy for read commands per rank (pJ)
system.mem_ctrl.rank0.writeEnergy             9714420                       # Energy for write commands per rank (pJ)
system.mem_ctrl.rank0.refreshEnergy      430862640.000000                       # Energy for refresh commands per rank (pJ)
system.mem_ctrl.rank0.actBackEnergy        1872784590                       # Energy for active background per rank (pJ)
system.mem_ctrl.rank0.preBackEnergy         519958560                       # Energy for precharge background per rank (pJ)
system.mem_ctrl.rank0.actPowerDownEnergy            0                       # Energy for active power-down per rank (pJ)
system.mem_ctrl.rank0.prePowerDownEnergy            0                       # Energy for precharge power-down per rank (pJ)
system.mem_ctrl.rank0.selfRefreshEnergy             0                       # Energy for self refresh per rank (pJ)
system.mem_ctrl.rank0.totalEnergy          2932227885                       # Total energy per rank (pJ)
system.mem_ctrl.rank0.averagePower         536.935604                       # Core power per rank (mW)
system.mem_ctrl.rank0.totalIdleTime                 0                       # Total Idle time Per DRAM Rank
system.mem_ctrl.rank0.memoryStateTime::IDLE   1333424250                       # Time in different power states
system.mem_ctrl.rank0.memoryStateTime::REF    182260000                       # Time in different power states
system.mem_ctrl.rank0.memoryStateTime::SREF            0                       # Time in different power states
system.mem_ctrl.rank0.memoryStateTime::PRE_PDN            0                       # Time in different power states
system.mem_ctrl.rank0.memoryStateTime::ACT   3945357750                       # Time in different power states
system.mem_ctrl.rank0.memoryStateTime::ACT_PDN            0                       # Time in different power states
system.mem_ctrl.power_state.pwrStateResidencyTicks::UNDEFINED   5461042000                       # Cumulative time (in ticks) in various power states
system.cache_medium.blocked_cycles::no_mshrs            0                       # number of cycles access was blocked
system.cache_medium.blocked_cycles::no_targets            0                       # number of cycles access was blocked
system.cache_medium.blocked::no_mshrs               0                       # number of cycles access was blocked
system.cache_medium.blocked::no_targets             0                       # number of cycles access was blocked
system.cache_medium.avg_blocked_cycles::no_mshrs          nan                       # average number of cycles each access was blocked
system.cache_medium.avg_blocked_cycles::no_targets          nan                       # average number of cycles each access was blocked
system.cache_medium.replacements                    0                       # number of replacements
system.cache_medium.power_state.pwrStateResidencyTicks::UNDEFINED   5461042000                       # Cumulative time (in ticks) in various power states
system.cache_medium.tags.tagsinuse                  0                       # Cycle average of tags in use
system.cache_medium.tags.total_refs                 0                       # Total number of references to valid blocks.
system.cache_medium.tags.sampled_refs               0                       # Sample count of references to valid blocks.
system.cache_medium.tags.avg_refs                 nan                       # Average number of references to valid blocks.
system.cache_medium.tags.warmup_cycle               0                       # Cycle when the warmup percentage was hit.
system.cache_medium.tags.tag_accesses               0                       # Number of tag accesses
system.cache_medium.tags.data_accesses              0                       # Number of data accesses
system.cache_medium.tags.power_state.pwrStateResidencyTicks::UNDEFINED   5461042000                       # Cumulative time (in ticks) in various power states
system.clk_domain.clock                          1000                       # Clock period in ticks
system.clk_domain.voltage_domain.voltage            1                       # Voltage in Volts
system.dcache.demand_hits::.cpu.data           349620                       # number of demand (read+write) hits
system.dcache.demand_hits::total               349620                       # number of demand (read+write) hits
system.dcache.overall_hits::.cpu.data          350169                       # number of overall hits
system.dcache.overall_hits::total              350169                       # number of overall hits
system.dcache.demand_misses::.cpu.data          16420                       # number of demand (read+write) misses
system.dcache.demand_misses::total              16420                       # number of demand (read+write) misses
system.dcache.overall_misses::.cpu.data         16702                       # number of overall misses
system.dcache.overall_misses::total             16702                       # number of overall misses
system.dcache.demand_miss_latency::.cpu.data    639901000                       # number of demand (read+write) miss cycles
system.dcache.demand_miss_latency::total    639901000                       # number of demand (read+write) miss cycles
system.dcache.overall_miss_latency::.cpu.data    660061000                       # number of overall miss cycles
system.dcache.overall_miss_latency::total    660061000                       # number of overall miss cycles
system.dcache.demand_accesses::.cpu.data       366040                       # number of demand (read+write) accesses
system.dcache.demand_accesses::total           366040                       # number of demand (read+write) accesses
system.dcache.overall_accesses::.cpu.data       366871                       # number of overall (read+write) accesses
system.dcache.overall_accesses::total          366871                       # number of overall (read+write) accesses
system.dcache.demand_miss_rate::.cpu.data     0.044858                       # miss rate for demand accesses
system.dcache.demand_miss_rate::total        0.044858                       # miss rate for demand accesses
system.dcache.overall_miss_rate::.cpu.data     0.045526                       # miss rate for overall accesses
system.dcache.overall_miss_rate::total       0.045526                       # miss rate for overall accesses
system.dcache.demand_avg_miss_latency::.cpu.data 38970.828258                       # average overall miss latency
system.dcache.demand_avg_miss_latency::total 38970.828258                       # average overall miss latency
system.dcache.overall_avg_miss_latency::.cpu.data 39519.877859                       # average overall miss latency
system.dcache.overall_avg_miss_latency::total 39519.877859                       # average overall miss latency
system.dcache.blocked_cycles::no_mshrs              0                       # number of cycles access was blocked
system.dcache.blocked_cycles::no_targets            0                       # number of cycles access was blocked
system.dcache.blocked::no_mshrs                     0                       # number of cycles access was blocked
system.dcache.blocked::no_targets                   0                       # number of cycles access was blocked
system.dcache.avg_blocked_cycles::no_mshrs          nan                       # average number of cycles each access was blocked
system.dcache.avg_blocked_cycles::no_targets          nan                       # average number of cycles each access was blocked
system.dcache.writebacks::.writebacks            9112                       # number of writebacks
[...]
system.dcache.tags.age_task_id_blocks_1024::0           38                       # Occupied blocks per task id
system.dcache.tags.age_task_id_blocks_1024::1          181                       # Occupied blocks per task id
system.dcache.tags.age_task_id_blocks_1024::2           37                       # Occupied blocks per task id
system.dcache.tags.occ_task_id_percent::1024            1                       # Percentage of cache occupancy per task id
system.dcache.tags.tag_accesses               1719227                       # Number of tag accesses
system.dcache.tags.data_accesses              1719227                       # Number of data accesses
system.dcache.tags.power_state.pwrStateResidencyTicks::UNDEFINED  23898316000                       # Cumulative time (in ticks) in various power states
system.cache_large.blocked_cycles::no_mshrs            0                       # number of cycles access was blocked
system.cache_large.blocked_cycles::no_targets            0                       # number of cycles access was blocked
system.cache_large.blocked::no_mshrs                0                       # number of cycles access was blocked
system.cache_large.blocked::no_targets              0                       # number of cycles access was blocked
system.cache_large.avg_blocked_cycles::no_mshrs          nan                       # average number of cycles each access was blocked
system.cache_large.avg_blocked_cycles::no_targets          nan                       # average number of cycles each access was blocked
system.cache_large.replacements                     0                       # number of replacements
system.cache_large.power_state.pwrStateResidencyTicks::UNDEFINED  23898316000                       # Cumulative time (in ticks) in various power states
system.cache_large.tags.tagsinuse                   0                       # Cycle average of tags in use
system.cache_large.tags.total_refs                  0                       # Total number of references to valid blocks.
system.cache_large.tags.sampled_refs                0                       # Sample count of references to valid blocks.
system.cache_large.tags.avg_refs                  nan                       # Average number of references to valid blocks.
system.cache_large.tags.warmup_cycle                0                       # Cycle when the warmup percentage was hit.
system.cache_large.tags.tag_accesses                0                       # Number of tag accesses
system.cache_large.tags.data_accesses               0                       # Number of data accesses
system.cache_large.tags.power_state.pwrStateResidencyTicks::UNDEFINED  23898316000                       # Cumulative time (in ticks) in various power states
system.l2cache.demand_hits::.cpu.inst           44919                       # number of demand (read+write) hits
system.l2cache.demand_hits::.cpu.data           29429                       # number of demand (read+write) hits
system.l2cache.demand_hits::total               74348                       # number of demand (read+write) hits
system.l2cache.overall_hits::.cpu.inst          44919                       # number of overall hits
system.l2cache.overall_hits::.cpu.data          29429                       # number of overall hits
system.l2cache.overall_hits::total              74348                       # number of overall hits
system.l2cache.demand_misses::.cpu.inst        136212                       # number of demand (read+write) misses
system.l2cache.demand_misses::.cpu.data         46614                       # number of demand (read+write) misses
system.l2cache.demand_misses::total            182826                       # number of demand (read+write) misses
system.l2cache.overall_misses::.cpu.inst       136212                       # number of overall misses
system.l2cache.overall_misses::.cpu.data        46614                       # number of overall misses
system.l2cache.overall_misses::total           182826                       # number of overall misses
system.l2cache.demand_miss_latency::.cpu.inst   5035268000                       # number of demand (read+write) miss cycles
system.l2cache.demand_miss_latency::.cpu.data   2037654000                       # number of demand (read+write) miss cycles
system.l2cache.demand_miss_latency::total   7072922000                       # number of demand (read+write) miss cycles
system.l2cache.overall_miss_latency::.cpu.inst   5035268000                       # number of overall miss cycles
system.l2cache.overall_miss_latency::.cpu.data   2037654000                       # number of overall miss cycles
system.l2cache.overall_miss_latency::total   7072922000                       # number of overall miss cycles
system.l2cache.demand_accesses::.cpu.inst       181131                       # number of demand (read+write) accesses
system.l2cache.demand_accesses::.cpu.data        76043                       # number of demand (read+write) accesses
system.l2cache.demand_accesses::total          257174                       # number of demand (read+write) accesses
system.l2cache.overall_accesses::.cpu.inst       181131                       # number of overall (read+write) accesses
system.l2cache.overall_accesses::.cpu.data        76043                       # number of overall (read+write) accesses
system.l2cache.overall_accesses::total         257174                       # number of overall (read+write) accesses
system.l2cache.demand_miss_rate::.cpu.inst     0.752008                       # miss rate for demand accesses
system.l2cache.demand_miss_rate::.cpu.data     0.612995                       # miss rate for demand accesses
system.l2cache.demand_miss_rate::total       0.710904                       # miss rate for demand accesses
system.l2cache.overall_miss_rate::.cpu.inst     0.752008                       # miss rate for overall accesses
system.l2cache.overall_miss_rate::.cpu.data     0.612995                       # miss rate for overall accesses
system.l2cache.overall_miss_rate::total      0.710904                       # miss rate for overall accesses
system.l2cache.demand_avg_miss_latency::.cpu.inst 36966.405309                       # average overall miss latency
system.l2cache.demand_avg_miss_latency::.cpu.data 43713.347921                       # average overall miss latency
system.l2cache.demand_avg_miss_latency::total 38686.631004                       # average overall miss latency
system.l2cache.overall_avg_miss_latency::.cpu.inst 36966.405309                       # average overall miss latency
system.l2cache.overall_avg_miss_latency::.cpu.data 43713.347921                       # average overall miss latency
system.l2cache.overall_avg_miss_latency::total 38686.631004                       # average overall miss latency
system.l2cache.blocked_cycles::no_mshrs             0                       # number of cycles access was blocked
system.l2cache.blocked_cycles::no_targets            0                       # number of cycles access was blocked
system.l2cache.blocked::no_mshrs                    0                       # number of cycles access was blocked
system.l2cache.blocked::no_targets                  0                       # number of cycles access was blocked
system.l2cache.avg_blocked_cycles::no_mshrs          nan                       # average number of cycles each access was blocked
system.l2cache.avg_blocked_cycles::no_targets          nan                       # average number of cycles each access was blocked
system.l2cache.writebacks::.writebacks          31361                       # number of writebacks
system.l2cache.writebacks::total                31361                       # number of writebacks
system.l2cache.demand_mshr_misses::.cpu.inst       136212                       # number of demand (read+write) MSHR misses
system.l2cache.demand_mshr_misses::.cpu.data        46614                       # number of demand (read+write) MSHR misses
system.l2cache.demand_mshr_misses::total       182826                       # number of demand (read+write) MSHR misses
system.l2cache.overall_mshr_misses::.cpu.inst       136212                       # number of overall MSHR misses
system.l2cache.overall_mshr_misses::.cpu.data        46614                       # number of overall MSHR misses
system.l2cache.overall_mshr_misses::total       182826                       # number of overall MSHR misses
system.l2cache.demand_mshr_miss_latency::.cpu.inst   4762844000                       # number of demand (read+write) MSHR miss cycles
system.l2cache.demand_mshr_miss_latency::.cpu.data   1944426000                       # number of demand (read+write) MSHR miss cycles
system.l2cache.demand_mshr_miss_latency::total   6707270000                       # number of demand (read+write) MSHR miss cycles
system.l2cache.overall_mshr_miss_latency::.cpu.inst   4762844000                       # number of overall MSHR miss cycles
system.l2cache.overall_mshr_miss_latency::.cpu.data   1944426000                       # number of overall MSHR miss cycles
system.l2cache.overall_mshr_miss_latency::total   6707270000                       # number of overall MSHR miss cycles
system.l2cache.demand_mshr_miss_rate::.cpu.inst     0.752008                       # mshr miss rate for demand accesses
system.l2cache.demand_mshr_miss_rate::.cpu.data     0.612995                       # mshr miss rate for demand accesses
system.l2cache.demand_mshr_miss_rate::total     0.710904                       # mshr miss rate for demand accesses
system.l2cache.overall_mshr_miss_rate::.cpu.inst     0.752008                       # mshr miss rate for overall accesses
system.l2cache.overall_mshr_miss_rate::.cpu.data     0.612995                       # mshr miss rate for overall accesses
system.l2cache.overall_mshr_miss_rate::total     0.710904                       # mshr miss rate for overall accesses
system.l2cache.demand_avg_mshr_miss_latency::.cpu.inst 34966.405309                       # average overall mshr miss latency
system.l2cache.demand_avg_mshr_miss_latency::.cpu.data 41713.347921                       # average overall mshr miss latency
system.l2cache.demand_avg_mshr_miss_latency::total 36686.631004                       # average overall mshr miss latency
system.l2cache.overall_avg_mshr_miss_latency::.cpu.inst 34966.405309                       # average overall mshr miss latency
system.l2cache.overall_avg_mshr_miss_latency::.cpu.data 41713.347921                       # average overall mshr miss latency
system.l2cache.overall_avg_mshr_miss_latency::total 36686.631004                       # average overall mshr miss latency
system.l2cache.replacements                    207221                       # number of replacements
system.l2cache.ReadReq_hits::.cpu.inst          44919                       # number of ReadReq hits
system.l2cache.ReadReq_hits::.cpu.data          29429                       # number of ReadReq hits
system.l2cache.ReadReq_hits::total              74348                       # number of ReadReq hits
system.l2cache.ReadReq_misses::.cpu.inst       136212                       # number of ReadReq misses
system.l2cache.ReadReq_misses::.cpu.data        46614                       # number of ReadReq misses
system.l2cache.ReadReq_misses::total           182826                       # number of ReadReq misses
system.l2cache.ReadReq_miss_latency::.cpu.inst   5035268000                       # number of ReadReq miss cycles
system.l2cache.ReadReq_miss_latency::.cpu.data   2037654000                       # number of ReadReq miss cycles
system.l2cache.ReadReq_miss_latency::total   7072922000                       # number of ReadReq miss cycles
system.l2cache.ReadReq_accesses::.cpu.inst       181131                       # number of ReadReq accesses(hits+misses)
system.l2cache.ReadReq_accesses::.cpu.data        76043                       # number of ReadReq accesses(hits+misses)
system.l2cache.ReadReq_accesses::total         257174                       # number of ReadReq accesses(hits+misses)
system.l2cache.ReadReq_miss_rate::.cpu.inst     0.752008                       # miss rate for ReadReq accesses
system.l2cache.ReadReq_miss_rate::.cpu.data     0.612995                       # miss rate for ReadReq accesses
system.l2cache.ReadReq_miss_rate::total      0.710904                       # miss rate for ReadReq accesses
system.l2cache.ReadReq_avg_miss_latency::.cpu.inst 36966.405309                       # average ReadReq miss latency
system.l2cache.ReadReq_avg_miss_latency::.cpu.data 43713.347921                       # average ReadReq miss latency
system.l2cache.ReadReq_avg_miss_latency::total 38686.631004                       # average ReadReq miss latency
system.l2cache.ReadReq_mshr_misses::.cpu.inst       136212                       # number of ReadReq MSHR misses
system.l2cache.ReadReq_mshr_misses::.cpu.data        46614                       # number of ReadReq MSHR misses
system.l2cache.ReadReq_mshr_misses::total       182826                       # number of ReadReq MSHR misses
system.l2cache.ReadReq_mshr_miss_latency::.cpu.inst   4762844000                       # number of ReadReq MSHR miss cycles
system.l2cache.ReadReq_mshr_miss_latency::.cpu.data   1944426000                       # number of ReadReq MSHR miss cycles
system.l2cache.ReadReq_mshr_miss_latency::total   6707270000                       # number of ReadReq MSHR miss cycles
system.l2cache.ReadReq_mshr_miss_rate::.cpu.inst     0.752008                       # mshr miss rate for ReadReq accesses
system.l2cache.ReadReq_mshr_miss_rate::.cpu.data     0.612995                       # mshr miss rate for ReadReq accesses
system.l2cache.ReadReq_mshr_miss_rate::total     0.710904                       # mshr miss rate for ReadReq accesses
system.l2cache.ReadReq_avg_mshr_miss_latency::.cpu.inst 34966.405309                       # average ReadReq mshr miss latency
system.l2cache.ReadReq_avg_mshr_miss_latency::.cpu.data 41713.347921                       # average ReadReq mshr miss latency
system.l2cache.ReadReq_avg_mshr_miss_latency::total 36686.631004                       # average ReadReq mshr miss latency
system.l2cache.WritebackDirty_hits::.writebacks        37872                       # number of WritebackDirty hits
system.l2cache.WritebackDirty_hits::total        37872                       # number of WritebackDirty hits
system.l2cache.WritebackDirty_accesses::.writebacks        37872                       # number of WritebackDirty accesses(hits+misses)
system.l2cache.WritebackDirty_accesses::total        37872                       # number of WritebackDirty accesses(hits+misses)
system.l2cache.power_state.pwrStateResidencyTicks::UNDEFINED  23898316000                       # Cumulative time (in ticks) in various power states
system.l2cache.tags.tagsinuse              510.877822                       # Cycle average of tags in use
system.l2cache.tags.total_refs                 295046                       # Total number of references to valid blocks.
system.l2cache.tags.sampled_refs               207733                       # Sample count of references to valid blocks.
system.l2cache.tags.avg_refs                 1.420314                       # Average number of references to valid blocks.
system.l2cache.tags.warmup_cycle                78000                       # Cycle when the warmup percentage was hit.
system.l2cache.tags.occ_blocks::.writebacks    72.795365                       # Average occupied blocks per requestor
system.l2cache.tags.occ_blocks::.cpu.inst   289.497211                       # Average occupied blocks per requestor
system.l2cache.tags.occ_blocks::.cpu.data   148.585245                       # Average occupied blocks per requestor
system.l2cache.tags.occ_percent::.writebacks     0.142178                       # Average percentage of cache occupancy
system.l2cache.tags.occ_percent::.cpu.inst     0.565424                       # Average percentage of cache occupancy
system.l2cache.tags.occ_percent::.cpu.data     0.290206                       # Average percentage of cache occupancy
system.l2cache.tags.occ_percent::total       0.997808                       # Average percentage of cache occupancy
system.l2cache.tags.occ_task_id_blocks::1024          512                       # Occupied blocks per task id
system.l2cache.tags.age_task_id_blocks_1024::0           76                       # Occupied blocks per task id
system.l2cache.tags.age_task_id_blocks_1024::1          284                       # Occupied blocks per task id
system.l2cache.tags.age_task_id_blocks_1024::2          152                       # Occupied blocks per task id
system.l2cache.tags.occ_task_id_percent::1024            1                       # Percentage of cache occupancy per task id
system.l2cache.tags.tag_accesses               502779                       # Number of tag accesses
system.l2cache.tags.data_accesses              502779                       # Number of data accesses
system.l2cache.tags.power_state.pwrStateResidencyTicks::UNDEFINED  23898316000                       # Cumulative time (in ticks) in various power states
system.l2bar.trans_dist::ReadReq               257174                       # Transaction distribution
system.l2bar.trans_dist::ReadResp              257174                       # Transaction distribution
system.l2bar.trans_dist::WritebackDirty         37872                       # Transaction distribution
system.l2bar.pkt_count_system.dcache.mem_side::system.l2cache.cpu_side       189958                       # Packet count per connected master and slave (bytes)
system.l2bar.pkt_count_system.icache.mem_side::system.l2cache.cpu_side       362262                       # Packet count per connected master and slave (bytes)
system.l2bar.pkt_count::total                  552220                       # Packet count per connected master and slave (bytes)
system.l2bar.pkt_size_system.dcache.mem_side::system.l2cache.cpu_side      7290560                       # Cumulative packet size per connected master and slave (bytes)
system.l2bar.pkt_size_system.icache.mem_side::system.l2cache.cpu_side     11592384                       # Cumulative packet size per connected master and slave (bytes)
system.l2bar.pkt_size::total                 18882944                       # Cumulative packet size per connected master and slave (bytes)
system.l2bar.respLayer1.occupancy           905655000                       # Layer occupancy (ticks)
system.l2bar.respLayer1.utilization               3.8                       # Layer utilization (%)
system.l2bar.reqLayer0.occupancy            446534000                       # Layer occupancy (ticks)
system.l2bar.reqLayer0.utilization                1.9                       # Layer utilization (%)
system.l2bar.respLayer0.occupancy           380215000                       # Layer occupancy (ticks)
system.l2bar.respLayer0.utilization               1.6                       # Layer utilization (%)
system.l2bar.power_state.pwrStateResidencyTicks::UNDEFINED  23898316000                       # Cumulative time (in ticks) in various power states
system.cpu.dtb.walker.power_state.pwrStateResidencyTicks::UNDEFINED  23898316000                       # Cumulative time (in ticks) in various power states
system.cpu.interrupts.clk_domain.clock          16000                       # Clock period in ticks
system.cpu.itb.walker.power_state.pwrStateResidencyTicks::UNDEFINED  23898316000                       # Cumulative time (in ticks) in various power states
system.cpu.power_state.numTransitions               1                       # Number of power state transitions
system.cpu.power_state.pwrStateResidencyTicks::ON  23898316000                       # Cumulative time (in ticks) in various power states

---------- End Simulation Statistics   ----------
