
---------- Begin Simulation Statistics ----------
final_tick                                12455296000                       # Number of ticks from beginning of simulation (restored from checkpoints and never reset)
host_inst_rate                                  59432                       # Simulator instruction rate (inst/s)
host_mem_usage                               34207016                       # Number of bytes of host memory used
host_op_rate                                    74345                       # Simulator op (including micro ops) rate (op/s)
host_seconds                                    16.83                       # Real time elapsed on the host
host_tick_rate                              740224213                       # Simulator tick rate (ticks/s)
sim_freq                                 1000000000000                       # Frequency of simulated ticks
sim_insts                                     1000003                       # Number of instructions simulated
sim_ops                                       1250955                       # Number of ops (including micro ops) simulated
sim_seconds                                  0.012455                       # Number of seconds simulated
sim_ticks                                 12455296000                       # Number of ticks simulated
system.cpu.Branches                             51675                       # Number of branches fetched
system.cpu.committedInsts                     1000003                       # Number of instructions committed
system.cpu.committedOps                       1250955                       # Number of ops (including micro ops) committed
system.cpu.dtb.rdAccesses                       11218                       # TLB accesses on read requests
system.cpu.dtb.rdMisses                            18                       # TLB misses on read requests
system.cpu.dtb.wrAccesses                      801535                       # TLB accesses on write requests
system.cpu.dtb.wrMisses                          3116                       # TLB misses on write requests
system.cpu.idle_fraction                            0                       # Percentage of idle cycles
system.cpu.itb.rdAccesses                           0                       # TLB accesses on read requests
system.cpu.itb.rdMisses                             0                       # TLB misses on read requests
system.cpu.itb.wrAccesses                     1534298                       # TLB accesses on write requests
system.cpu.itb.wrMisses                            67                       # TLB misses on write requests
system.cpu.not_idle_fraction                        1                       # Percentage of non-idle cycles
system.cpu.numCycles                         12455285                       # number of cpu cycles simulated
system.cpu.numWorkItemsCompleted                    0                       # number of work items this cpu completed
system.cpu.numWorkItemsStarted                      0                       # number of work items this cpu started
system.cpu.num_busy_cycles                   12455285                       # Number of busy cycles
system.cpu.num_cc_register_reads               261504                       # number of times the CC registers were read
system.cpu.num_cc_register_writes              268431                       # number of times the CC registers were written
system.cpu.num_conditional_control_insts        48893                       # number of instructions that are conditional controls
system.cpu.num_fp_alu_accesses                 755853                       # Number of float alu accesses
system.cpu.num_fp_insts                        755853                       # number of float instructions
system.cpu.num_fp_register_reads               757518                       # number of times the floating registers were read
system.cpu.num_fp_register_writes                2039                       # number of times the floating registers were written
system.cpu.num_func_calls                        1805                       # number of times a function call or return occured
system.cpu.num_idle_cycles                          0                       # Number of idle cycles
system.cpu.num_int_alu_accesses               1249736                       # Number of integer alu accesses
system.cpu.num_int_insts                      1249736                       # number of integer instructions
system.cpu.num_int_register_reads             3012656                       # number of times the integer registers were read
system.cpu.num_int_register_writes             397106                       # number of times the integer registers were written
system.cpu.num_load_insts                       11170                       # Number of load instructions
system.cpu.num_mem_refs                        812704                       # number of memory refs
system.cpu.num_store_insts                     801534                       # Number of store instructions
system.cpu.num_vec_alu_accesses                     0                       # Number of vector alu accesses
system.cpu.num_vec_insts                            0                       # number of vector instructions
system.cpu.num_vec_register_reads                   0                       # number of times the vector registers were read
system.cpu.num_vec_register_writes                  0                       # number of times the vector registers were written
system.cpu.op_class::No_OpClass                   851      0.07%      0.07% # Class of executed instruction
system.cpu.op_class::IntAlu                    436698     34.87%     34.93% # Class of executed instruction
system.cpu.op_class::IntMult                      170      0.01%     34.95% # Class of executed instruction
system.cpu.op_class::IntDiv                       105      0.01%     34.96% # Class of executed instruction
system.cpu.op_class::FloatAdd                      22      0.00%     34.96% # Class of executed instruction
system.cpu.op_class::FloatCmp                       0      0.00%     34.96% # Class of executed instruction
system.cpu.op_class::FloatCvt                       0      0.00%     34.96% # Class of executed instruction
system.cpu.op_class::FloatMult                      0      0.00%     34.96% # Class of executed instruction
system.cpu.op_class::FloatMultAcc                   0      0.00%     34.96% # Class of executed instruction
system.cpu.op_class::FloatDiv                       0      0.00%     34.96% # Class of executed instruction
system.cpu.op_class::FloatMisc                      0      0.00%     34.96% # Class of executed instruction
system.cpu.op_class::FloatSqrt                      0      0.00%     34.96% # Class of executed instruction
system.cpu.op_class::SimdAdd                        0      0.00%     34.96% # Class of executed instruction
system.cpu.op_class::SimdAddAcc                     0      0.00%     34.96% # Class of executed instruction
system.cpu.op_class::SimdAlu                     1024      0.08%     35.04% # Class of executed instruction
system.cpu.op_class::SimdCmp                        0      0.00%     35.04% # Class of executed instruction
system.cpu.op_class::SimdCvt                      426      0.03%     35.07% # Class of executed instruction
system.cpu.op_class::SimdMisc                     507      0.04%     35.11% # Class of executed instruction
system.cpu.op_class::SimdMult                       0      0.00%     35.11% # Class of executed instruction
system.cpu.op_class::SimdMultAcc                    0      0.00%     35.11% # Class of executed instruction
system.cpu.op_class::SimdShift                      0      0.00%     35.11% # Class of executed instruction
system.cpu.op_class::SimdShiftAcc                   0      0.00%     35.11% # Class of executed instruction
system.cpu.op_class::SimdDiv                        0      0.00%     35.11% # Class of executed instruction
system.cpu.op_class::SimdSqrt                       0      0.00%     35.11% # Class of executed instruction
system.cpu.op_class::SimdFloatAdd                   0      0.00%     35.11% # Class of executed instruction
system.cpu.op_class::SimdFloatAlu                   0      0.00%     35.11% # Class of executed instruction
system.cpu.op_class::SimdFloatCmp                   0      0.00%     35.11% # Class of executed instruction
system.cpu.op_class::SimdFloatCvt                   2      0.00%     35.11% # Class of executed instruction
system.cpu.op_class::SimdFloatDiv                   0      0.00%     35.11% # Class of executed instruction
system.cpu.op_class::SimdFloatMisc                  0      0.00%     35.11% # Class of executed instruction
system.cpu.op_class::SimdFloatMult                  0      0.00%     35.11% # Class of executed instruction
system.cpu.op_class::SimdFloatMultAcc               0      0.00%     35.11% # Class of executed instruction
system.cpu.op_class::SimdFloatSqrt                  0      0.00%     35.11% # Class of executed instruction
system.cpu.op_class::SimdReduceAdd                  0      0.00%     35.11% # Class of executed instruction
system.cpu.op_class::SimdReduceAlu                  0      0.00%     35.11% # Class of executed instruction
system.cpu.op_class::SimdReduceCmp                  0      0.00%     35.11% # Class of executed instruction
system.cpu.op_class::SimdFloatReduceAdd             0      0.00%     35.11% # Class of executed instruction
system.cpu.op_class::SimdFloatReduceCmp             0      0.00%     35.11% # Class of executed instruction
system.cpu.op_class::SimdAes                        0      0.00%     35.11% # Class of executed instruction
system.cpu.op_class::SimdAesMix                     0      0.00%     35.11% # Class of executed instruction
system.cpu.op_class::SimdSha1Hash                   0      0.00%     35.11% # Class of executed instruction
system.cpu.op_class::SimdSha1Hash2                  0      0.00%     35.11% # Class of executed instruction
system.cpu.op_class::SimdSha256Hash                 0      0.00%     35.11% # Class of executed instruction
system.cpu.op_class::SimdSha256Hash2                0      0.00%     35.11% # Class of executed instruction
system.cpu.op_class::SimdShaSigma2                  0      0.00%     35.11% # Class of executed instruction
system.cpu.op_class::SimdShaSigma3                  0      0.00%     35.11% # Class of executed instruction
system.cpu.op_class::SimdPredAlu                    0      0.00%     35.11% # Class of executed instruction
system.cpu.op_class::MemRead                    10800      0.86%     35.98% # Class of executed instruction
system.cpu.op_class::MemWrite                   48100      3.84%     39.82% # Class of executed instruction
system.cpu.op_class::FloatMemRead                 370      0.03%     39.85% # Class of executed instruction
system.cpu.op_class::FloatMemWrite             753434     60.15%    100.00% # Class of executed instruction
system.cpu.op_class::IprAccess                      0      0.00%    100.00% # Class of executed instruction
system.cpu.op_class::InstPrefetch                   0      0.00%    100.00% # Class of executed instruction
system.cpu.op_class::total                    1252509                       # Class of executed instruction
system.cpu.workload.numSyscalls                   125                       # Number of system calls
system.dynamic_cache.flushTicks                     0                       # Ticks taken to flush
system.dynamic_cache.numFlushes                     0                       # Number of Flushes Taken
system.cache_small.demand_hits::.cpu.inst          136                       # number of demand (read+write) hits
system.cache_small.demand_hits::.cpu.data           18                       # number of demand (read+write) hits
system.cache_small.demand_hits::total             154                       # number of demand (read+write) hits
system.cache_small.overall_hits::.cpu.inst          136                       # number of overall hits
system.cache_small.overall_hits::.cpu.data           18                       # number of overall hits
system.cache_small.overall_hits::total            154                       # number of overall hits
system.cache_small.demand_misses::.cpu.inst          753                       # number of demand (read+write) misses
system.cache_small.demand_misses::.cpu.data        99443                       # number of demand (read+write) misses
system.cache_small.demand_misses::total        100196                       # number of demand (read+write) misses
system.cache_small.overall_misses::.cpu.inst          753                       # number of overall misses
system.cache_small.overall_misses::.cpu.data        99443                       # number of overall misses
system.cache_small.overall_misses::total       100196                       # number of overall misses
system.cache_small.demand_miss_latency::.cpu.inst     44888000                       # number of demand (read+write) miss cycles
system.cache_small.demand_miss_latency::.cpu.data   6208939000                       # number of demand (read+write) miss cycles
system.cache_small.demand_miss_latency::total   6253827000                       # number of demand (read+write) miss cycles
system.cache_small.overall_miss_latency::.cpu.inst     44888000                       # number of overall miss cycles
system.cache_small.overall_miss_latency::.cpu.data   6208939000                       # number of overall miss cycles
system.cache_small.overall_miss_latency::total   6253827000                       # number of overall miss cycles
system.cache_small.demand_accesses::.cpu.inst          889                       # number of demand (read+write) accesses
system.cache_small.demand_accesses::.cpu.data        99461                       # number of demand (read+write) accesses
system.cache_small.demand_accesses::total       100350                       # number of demand (read+write) accesses
system.cache_small.overall_accesses::.cpu.inst          889                       # number of overall (read+write) accesses
system.cache_small.overall_accesses::.cpu.data        99461                       # number of overall (read+write) accesses
system.cache_small.overall_accesses::total       100350                       # number of overall (read+write) accesses
system.cache_small.demand_miss_rate::.cpu.inst     0.847019                       # miss rate for demand accesses
system.cache_small.demand_miss_rate::.cpu.data     0.999819                       # miss rate for demand accesses
system.cache_small.demand_miss_rate::total     0.998465                       # miss rate for demand accesses
system.cache_small.overall_miss_rate::.cpu.inst     0.847019                       # miss rate for overall accesses
system.cache_small.overall_miss_rate::.cpu.data     0.999819                       # miss rate for overall accesses
system.cache_small.overall_miss_rate::total     0.998465                       # miss rate for overall accesses
system.cache_small.demand_avg_miss_latency::.cpu.inst 59612.217795                       # average overall miss latency
system.cache_small.demand_avg_miss_latency::.cpu.data 62437.165009                       # average overall miss latency
system.cache_small.demand_avg_miss_latency::total 62415.934768                       # average overall miss latency
system.cache_small.overall_avg_miss_latency::.cpu.inst 59612.217795                       # average overall miss latency
system.cache_small.overall_avg_miss_latency::.cpu.data 62437.165009                       # average overall miss latency
system.cache_small.overall_avg_miss_latency::total 62415.934768                       # average overall miss latency
system.cache_small.blocked_cycles::no_mshrs            0                       # number of cycles access was blocked
system.cache_small.blocked_cycles::no_targets            0                       # number of cycles access was blocked
system.cache_small.blocked::no_mshrs                0                       # number of cycles access was blocked
system.cache_small.blocked::no_targets              0                       # number of cycles access was blocked
system.cache_small.avg_blocked_cycles::no_mshrs          nan                       # average number of cycles each access was blocked
system.cache_small.avg_blocked_cycles::no_targets          nan                       # average number of cycles each access was blocked
system.cache_small.writebacks::.writebacks        91163                       # number of writebacks
system.cache_small.writebacks::total            91163                       # number of writebacks
system.cache_small.demand_mshr_misses::.cpu.inst          753                       # number of demand (read+write) MSHR misses
system.cache_small.demand_mshr_misses::.cpu.data        99443                       # number of demand (read+write) MSHR misses
system.cache_small.demand_mshr_misses::total       100196                       # number of demand (read+write) MSHR misses
system.cache_small.overall_mshr_misses::.cpu.inst          753                       # number of overall MSHR misses
system.cache_small.overall_mshr_misses::.cpu.data        99443                       # number of overall MSHR misses
system.cache_small.overall_mshr_misses::total       100196                       # number of overall MSHR misses
system.cache_small.demand_mshr_miss_latency::.cpu.inst     43382000                       # number of demand (read+write) MSHR miss cycles
system.cache_small.demand_mshr_miss_latency::.cpu.data   6010053000                       # number of demand (read+write) MSHR miss cycles
system.cache_small.demand_mshr_miss_latency::total   6053435000                       # number of demand (read+write) MSHR miss cycles
system.cache_small.overall_mshr_miss_latency::.cpu.inst     43382000                       # number of overall MSHR miss cycles
system.cache_small.overall_mshr_miss_latency::.cpu.data   6010053000                       # number of overall MSHR miss cycles
system.cache_small.overall_mshr_miss_latency::total   6053435000                       # number of overall MSHR miss cycles
system.cache_small.demand_mshr_miss_rate::.cpu.inst     0.847019                       # mshr miss rate for demand accesses
system.cache_small.demand_mshr_miss_rate::.cpu.data     0.999819                       # mshr miss rate for demand accesses
system.cache_small.demand_mshr_miss_rate::total     0.998465                       # mshr miss rate for demand accesses
system.cache_small.overall_mshr_miss_rate::.cpu.inst     0.847019                       # mshr miss rate for overall accesses
system.cache_small.overall_mshr_miss_rate::.cpu.data     0.999819                       # mshr miss rate for overall accesses
system.cache_small.overall_mshr_miss_rate::total     0.998465                       # mshr miss rate for overall accesses
system.cache_small.demand_avg_mshr_miss_latency::.cpu.inst 57612.217795                       # average overall mshr miss latency
system.cache_small.demand_avg_mshr_miss_latency::.cpu.data 60437.165009                       # average overall mshr miss latency
system.cache_small.demand_avg_mshr_miss_latency::total 60415.934768                       # average overall mshr miss latency
system.cache_small.overall_avg_mshr_miss_latency::.cpu.inst 57612.217795                       # average overall mshr miss latency
system.cache_small.overall_avg_mshr_miss_latency::.cpu.data 60437.165009                       # average overall mshr miss latency
system.cache_small.overall_avg_mshr_miss_latency::total 60415.934768                       # average overall mshr miss latency
system.cache_small.replacements                 92049                       # number of replacements
system.cache_small.ReadReq_hits::.cpu.inst          136                       # number of ReadReq hits
system.cache_small.ReadReq_hits::.cpu.data           18                       # number of ReadReq hits
system.cache_small.ReadReq_hits::total            154                       # number of ReadReq hits
system.cache_small.ReadReq_misses::.cpu.inst          753                       # number of ReadReq misses
system.cache_small.ReadReq_misses::.cpu.data        99443                       # number of ReadReq misses
system.cache_small.ReadReq_misses::total       100196                       # number of ReadReq misses
system.cache_small.ReadReq_miss_latency::.cpu.inst     44888000                       # number of ReadReq miss cycles
system.cache_small.ReadReq_miss_latency::.cpu.data   6208939000                       # number of ReadReq miss cycles
system.cache_small.ReadReq_miss_latency::total   6253827000                       # number of ReadReq miss cycles
system.cache_small.ReadReq_accesses::.cpu.inst          889                       # number of ReadReq accesses(hits+misses)
system.cache_small.ReadReq_accesses::.cpu.data        99461                       # number of ReadReq accesses(hits+misses)
system.cache_small.ReadReq_accesses::total       100350                       # number of ReadReq accesses(hits+misses)
system.cache_small.ReadReq_miss_rate::.cpu.inst     0.847019                       # miss rate for ReadReq accesses
system.cache_small.ReadReq_miss_rate::.cpu.data     0.999819                       # miss rate for ReadReq accesses
system.cache_small.ReadReq_miss_rate::total     0.998465                       # miss rate for ReadReq accesses
system.cache_small.ReadReq_avg_miss_latency::.cpu.inst 59612.217795                       # average ReadReq miss latency
system.cache_small.ReadReq_avg_miss_latency::.cpu.data 62437.165009                       # average ReadReq miss latency
system.cache_small.ReadReq_avg_miss_latency::total 62415.934768                       # average ReadReq miss latency
system.cache_small.ReadReq_mshr_misses::.cpu.inst          753                       # number of ReadReq MSHR misses
system.cache_small.ReadReq_mshr_misses::.cpu.data        99443                       # number of ReadReq MSHR misses
system.cache_small.ReadReq_mshr_misses::total       100196                       # number of ReadReq MSHR misses
system.cache_small.ReadReq_mshr_miss_latency::.cpu.inst     43382000                       # number of ReadReq MSHR miss cycles
system.cache_small.ReadReq_mshr_miss_latency::.cpu.data   6010053000                       # number of ReadReq MSHR miss cycles
system.cache_small.ReadReq_mshr_miss_latency::total   6053435000                       # number of ReadReq MSHR miss cycles
system.cache_small.ReadReq_mshr_miss_rate::.cpu.inst     0.847019                       # mshr miss rate for ReadReq accesses
system.cache_small.ReadReq_mshr_miss_rate::.cpu.data     0.999819                       # mshr miss rate for ReadReq accesses
system.cache_small.ReadReq_mshr_miss_rate::total     0.998465                       # mshr miss rate for ReadReq accesses
system.cache_small.ReadReq_avg_mshr_miss_latency::.cpu.inst 57612.217795                       # average ReadReq mshr miss latency
system.cache_small.ReadReq_avg_mshr_miss_latency::.cpu.data 60437.165009                       # average ReadReq mshr miss latency
system.cache_small.ReadReq_avg_mshr_miss_latency::total 60415.934768                       # average ReadReq mshr miss latency
system.cache_small.WritebackDirty_hits::.writebacks        98871                       # number of WritebackDirty hits
system.cache_small.WritebackDirty_hits::total        98871                       # number of WritebackDirty hits
system.cache_small.WritebackDirty_accesses::.writebacks        98871                       # number of WritebackDirty accesses(hits+misses)
system.cache_small.WritebackDirty_accesses::total        98871                       # number of WritebackDirty accesses(hits+misses)
system.cache_small.power_state.pwrStateResidencyTicks::UNDEFINED  12455296000                       # Cumulative time (in ticks) in various power states
system.cache_small.tags.tagsinuse         7770.032532                       # Cycle average of tags in use
system.cache_small.tags.total_refs             183349                       # Total number of references to valid blocks.
system.cache_small.tags.sampled_refs            92049                       # Sample count of references to valid blocks.
system.cache_small.tags.avg_refs             1.991863                       # Average number of references to valid blocks.
system.cache_small.tags.warmup_cycle            76000                       # Cycle when the warmup percentage was hit.
system.cache_small.tags.occ_blocks::.writebacks     2.603881                       # Average occupied blocks per requestor
system.cache_small.tags.occ_blocks::.cpu.inst    35.152443                       # Average occupied blocks per requestor
system.cache_small.tags.occ_blocks::.cpu.data  7732.276207                       # Average occupied blocks per requestor
system.cache_small.tags.occ_percent::.writebacks     0.000318                       # Average percentage of cache occupancy
system.cache_small.tags.occ_percent::.cpu.inst     0.004291                       # Average percentage of cache occupancy
system.cache_small.tags.occ_percent::.cpu.data     0.943881                       # Average percentage of cache occupancy
system.cache_small.tags.occ_percent::total     0.948490                       # Average percentage of cache occupancy
system.cache_small.tags.occ_task_id_blocks::1024         8192                       # Occupied blocks per task id
system.cache_small.tags.age_task_id_blocks_1024::0           82                       # Occupied blocks per task id
system.cache_small.tags.age_task_id_blocks_1024::1          728                       # Occupied blocks per task id
system.cache_small.tags.age_task_id_blocks_1024::2         7277                       # Occupied blocks per task id
system.cache_small.tags.age_task_id_blocks_1024::3          105                       # Occupied blocks per task id
system.cache_small.tags.occ_task_id_percent::1024            1                       # Percentage of cache occupancy per task id
system.cache_small.tags.tag_accesses           299462                       # Number of tag accesses
system.cache_small.tags.data_accesses          299462                       # Number of data accesses
system.cache_small.tags.power_state.pwrStateResidencyTicks::UNDEFINED  12455296000                       # Cumulative time (in ticks) in various power states
system.icache.demand_hits::.cpu.inst          1533339                       # number of demand (read+write) hits
system.icache.demand_hits::total              1533339                       # number of demand (read+write) hits
system.icache.overall_hits::.cpu.inst         1533339                       # number of overall hits
system.icache.overall_hits::total             1533339                       # number of overall hits
system.icache.demand_misses::.cpu.inst            959                       # number of demand (read+write) misses
system.icache.demand_misses::total                959                       # number of demand (read+write) misses
system.icache.overall_misses::.cpu.inst           959                       # number of overall misses
system.icache.overall_misses::total               959                       # number of overall misses
system.icache.demand_miss_latency::.cpu.inst     61355000                       # number of demand (read+write) miss cycles
system.icache.demand_miss_latency::total     61355000                       # number of demand (read+write) miss cycles
system.icache.overall_miss_latency::.cpu.inst     61355000                       # number of overall miss cycles
system.icache.overall_miss_latency::total     61355000                       # number of overall miss cycles
system.icache.demand_accesses::.cpu.inst      1534298                       # number of demand (read+write) accesses
system.icache.demand_accesses::total          1534298                       # number of demand (read+write) accesses
system.icache.overall_accesses::.cpu.inst      1534298                       # number of overall (read+write) accesses
system.icache.overall_accesses::total         1534298                       # number of overall (read+write) accesses
system.icache.demand_miss_rate::.cpu.inst     0.000625                       # miss rate for demand accesses
system.icache.demand_miss_rate::total        0.000625                       # miss rate for demand accesses
system.icache.overall_miss_rate::.cpu.inst     0.000625                       # miss rate for overall accesses
system.icache.overall_miss_rate::total       0.000625                       # miss rate for overall accesses
system.icache.demand_avg_miss_latency::.cpu.inst 63978.102190                       # average overall miss latency
system.icache.demand_avg_miss_latency::total 63978.102190                       # average overall miss latency
system.icache.overall_avg_miss_latency::.cpu.inst 63978.102190                       # average overall miss latency
system.icache.overall_avg_miss_latency::total 63978.102190                       # average overall miss latency
system.icache.blocked_cycles::no_mshrs              0                       # number of cycles access was blocked
system.icache.blocked_cycles::no_targets            0                       # number of cycles access was blocked
system.icache.blocked::no_mshrs                     0                       # number of cycles access was blocked
system.icache.blocked::no_targets                   0                       # number of cycles access was blocked
system.icache.avg_blocked_cycles::no_mshrs          nan                       # average number of cycles each access was blocked
system.icache.avg_blocked_cycles::no_targets          nan                       # average number of cycles each access was blocked
system.icache.demand_mshr_misses::.cpu.inst          959                       # number of demand (read+write) MSHR misses
system.icache.demand_mshr_misses::total           959                       # number of demand (read+write) MSHR misses
system.icache.overall_mshr_misses::.cpu.inst          959                       # number of overall MSHR misses
system.icache.overall_mshr_misses::total          959                       # number of overall MSHR misses
system.icache.demand_mshr_miss_latency::.cpu.inst     59437000                       # number of demand (read+write) MSHR miss cycles
system.icache.demand_mshr_miss_latency::total     59437000                       # number of demand (read+write) MSHR miss cycles
system.icache.overall_mshr_miss_latency::.cpu.inst     59437000                       # number of overall MSHR miss cycles
system.icache.overall_mshr_miss_latency::total     59437000                       # number of overall MSHR miss cycles
system.icache.demand_mshr_miss_rate::.cpu.inst     0.000625                       # mshr miss rate for demand accesses
system.icache.demand_mshr_miss_rate::total     0.000625                       # mshr miss rate for demand accesses
system.icache.overall_mshr_miss_rate::.cpu.inst     0.000625                       # mshr miss rate for overall accesses
system.icache.overall_mshr_miss_rate::total     0.000625                       # mshr miss rate for overall accesses
system.icache.demand_avg_mshr_miss_latency::.cpu.inst 61978.102190                       # average overall mshr miss latency
system.icache.demand_avg_mshr_miss_latency::total 61978.102190                       # average overall mshr miss latency
system.icache.overall_avg_mshr_miss_latency::.cpu.inst 61978.102190                       # average overall mshr miss latency
system.icache.overall_avg_mshr_miss_latency::total 61978.102190                       # average overall mshr miss latency
system.icache.replacements                        712                       # number of replacements
system.icache.ReadReq_hits::.cpu.inst         1533339                       # number of ReadReq hits
system.icache.ReadReq_hits::total             1533339                       # number of ReadReq hits
system.icache.ReadReq_misses::.cpu.inst           959                       # number of ReadReq misses
system.icache.ReadReq_misses::total               959                       # number of ReadReq misses
system.icache.ReadReq_miss_latency::.cpu.inst     61355000                       # number of ReadReq miss cycles
system.icache.ReadReq_miss_latency::total     61355000                       # number of ReadReq miss cycles
system.icache.ReadReq_accesses::.cpu.inst      1534298                       # number of ReadReq accesses(hits+misses)
system.icache.ReadReq_accesses::total         1534298                       # number of ReadReq accesses(hits+misses)
system.icache.ReadReq_miss_rate::.cpu.inst     0.000625                       # miss rate for ReadReq accesses
system.icache.ReadReq_miss_rate::total       0.000625                       # miss rate for ReadReq accesses
system.icache.ReadReq_avg_miss_latency::.cpu.inst 63978.102190                       # average ReadReq miss latency
system.icache.ReadReq_avg_miss_latency::total 63978.102190                       # average ReadReq miss latency
system.icache.ReadReq_mshr_misses::.cpu.inst          959                       # number of ReadReq MSHR misses
system.icache.ReadReq_mshr_misses::total          959                       # number of ReadReq MSHR misses
system.icache.ReadReq_mshr_miss_latency::.cpu.inst     59437000                       # number of ReadReq MSHR miss cycles
system.icache.ReadReq_mshr_miss_latency::total     59437000                       # number of ReadReq MSHR miss cycles
system.icache.ReadReq_mshr_miss_rate::.cpu.inst     0.000625                       # mshr miss rate for ReadReq accesses
system.icache.ReadReq_mshr_miss_rate::total     0.000625                       # mshr miss rate for ReadReq accesses
system.icache.ReadReq_avg_mshr_miss_latency::.cpu.inst 61978.102190                       # average ReadReq mshr miss latency
system.icache.ReadReq_avg_mshr_miss_latency::total 61978.102190                       # average ReadReq mshr miss latency
system.icache.power_state.pwrStateResidencyTicks::UNDEFINED  12455296000                       # Cumulative time (in ticks) in various power states
system.icache.tags.tagsinuse               245.969158                       # Cycle average of tags in use
system.icache.tags.total_refs                   43650                       # Total number of references to valid blocks.
system.icache.tags.sampled_refs                   712                       # Sample count of references to valid blocks.
system.icache.tags.avg_refs                 61.306180                       # Average number of references to valid blocks.
system.icache.tags.warmup_cycle                 82000                       # Cycle when the warmup percentage was hit.
system.icache.tags.occ_blocks::.cpu.inst   245.969158                       # Average occupied blocks per requestor
system.icache.tags.occ_percent::.cpu.inst     0.960817                       # Average percentage of cache occupancy
system.icache.tags.occ_percent::total        0.960817                       # Average percentage of cache occupancy
system.icache.tags.occ_task_id_blocks::1024          247                       # Occupied blocks per task id
system.icache.tags.age_task_id_blocks_1024::4          247                       # Occupied blocks per task id
system.icache.tags.occ_task_id_percent::1024     0.964844                       # Percentage of cache occupancy per task id
system.icache.tags.tag_accesses               1535257                       # Number of tag accesses
system.icache.tags.data_accesses              1535257                       # Number of data accesses
system.icache.tags.power_state.pwrStateResidencyTicks::UNDEFINED  12455296000                       # Cumulative time (in ticks) in various power states
system.membus.trans_dist::ReadReq              100196                       # Transaction distribution
system.membus.trans_dist::ReadResp             100196                       # Transaction distribution
system.membus.trans_dist::WritebackDirty        91163                       # Transaction distribution
system.membus.pkt_count_system.cache_small.mem_side::system.mem_ctrl.port       291555                       # Packet count per connected master and slave (bytes)
system.membus.pkt_count_system.cache_small.mem_side::total       291555                       # Packet count per connected master and slave (bytes)
system.membus.pkt_count::total                 291555                       # Packet count per connected master and slave (bytes)
system.membus.pkt_size_system.cache_small.mem_side::system.mem_ctrl.port     12246976                       # Cumulative packet size per connected master and slave (bytes)
system.membus.pkt_size_system.cache_small.mem_side::total     12246976                       # Cumulative packet size per connected master and slave (bytes)
system.membus.pkt_size::total                12246976                       # Cumulative packet size per connected master and slave (bytes)
system.membus.reqLayer2.occupancy           556011000                       # Layer occupancy (ticks)
system.membus.reqLayer2.utilization               4.5                       # Layer utilization (%)
system.membus.respLayer1.occupancy          527453000                       # Layer occupancy (ticks)
system.membus.respLayer1.utilization              4.2                       # Layer utilization (%)
system.membus.power_state.pwrStateResidencyTicks::UNDEFINED  12455296000                       # Cumulative time (in ticks) in various power states
system.mem_ctrl.bytes_read::.cpu.inst           48192                       # Number of bytes read from this memory
system.mem_ctrl.bytes_read::.cpu.data         6364352                       # Number of bytes read from this memory
system.mem_ctrl.bytes_read::total             6412544                       # Number of bytes read from this memory
system.mem_ctrl.bytes_inst_read::.cpu.inst        48192                       # Number of instructions bytes read from this memory
system.mem_ctrl.bytes_inst_read::total          48192                       # Number of instructions bytes read from this memory
system.mem_ctrl.bytes_written::.writebacks      5834432                       # Number of bytes written to this memory
system.mem_ctrl.bytes_written::total          5834432                       # Number of bytes written to this memory
system.mem_ctrl.num_reads::.cpu.inst              753                       # Number of read requests responded to by this memory
system.mem_ctrl.num_reads::.cpu.data            99443                       # Number of read requests responded to by this memory
system.mem_ctrl.num_reads::total               100196                       # Number of read requests responded to by this memory
system.mem_ctrl.num_writes::.writebacks         91163                       # Number of write requests responded to by this memory
system.mem_ctrl.num_writes::total               91163                       # Number of write requests responded to by this memory
system.mem_ctrl.bw_read::.cpu.inst            3869197                       # Total read bandwidth from this memory (bytes/s)
system.mem_ctrl.bw_read::.cpu.data          510975572                       # Total read bandwidth from this memory (bytes/s)
system.mem_ctrl.bw_read::total              514844770                       # Total read bandwidth from this memory (bytes/s)
system.mem_ctrl.bw_inst_read::.cpu.inst       3869197                       # Instruction read bandwidth from this memory (bytes/s)
system.mem_ctrl.bw_inst_read::total           3869197                       # Instruction read bandwidth from this memory (bytes/s)
system.mem_ctrl.bw_write::.writebacks       468429815                       # Write bandwidth from this memory (bytes/s)
system.mem_ctrl.bw_write::total             468429815                       # Write bandwidth from this memory (bytes/s)
system.mem_ctrl.bw_total::.writebacks       468429815                       # Total bandwidth to/from this memory (bytes/s)
system.mem_ctrl.bw_total::.cpu.inst           3869197                       # Total bandwidth to/from this memory (bytes/s)
system.mem_ctrl.bw_total::.cpu.data         510975572                       # Total bandwidth to/from this memory (bytes/s)
system.mem_ctrl.bw_total::total             983274585                       # Total bandwidth to/from this memory (bytes/s)
system.mem_ctrl.avgPriority_.writebacks::samples     91163.00                       # Average QoS priority value for accepted requests
system.mem_ctrl.avgPriority_.cpu.inst::samples       753.00                       # Average QoS priority value for accepted requests
system.mem_ctrl.avgPriority_.cpu.data::samples     99443.00                       # Average QoS priority value for accepted requests
system.mem_ctrl.priorityMinLatency       0.000000018750                       # per QoS priority minimum request to response latency (s)
system.mem_ctrl.priorityMaxLatency       0.001747998500                       # per QoS priority maximum request to response latency (s)
system.mem_ctrl.numReadWriteTurnArounds          5363                       # Number of turnarounds from READ to WRITE
system.mem_ctrl.numWriteReadTurnArounds          5363                       # Number of turnarounds from WRITE to READ
system.mem_ctrl.numStayReadState               289932                       # Number of times bus staying in READ state
system.mem_ctrl.numStayWriteState               85879                       # Number of times bus staying in WRITE state
system.mem_ctrl.readReqs                       100196                       # Number of read requests accepted
system.mem_ctrl.writeReqs                       91163                       # Number of write requests accepted
system.mem_ctrl.readBursts                     100196                       # Number of DRAM read bursts, including those serviced by the write queue
system.mem_ctrl.writeBursts                     91163                       # Number of DRAM write bursts, including those merged in the write queue
system.mem_ctrl.servicedByWrQ                       0                       # Number of DRAM read bursts serviced by the write queue
system.mem_ctrl.mergedWrBursts                      0                       # Number of DRAM write bursts merged with an existing one
system.mem_ctrl.neitherReadNorWriteReqs             0                       # Number of requests that are neither read nor write
system.mem_ctrl.perBankRdBursts::0               6312                       # Per bank write bursts
system.mem_ctrl.perBankRdBursts::1               6231                       # Per bank write bursts
system.mem_ctrl.perBankRdBursts::2               6235                       # Per bank write bursts
system.mem_ctrl.perBankRdBursts::3               6218                       # Per bank write bursts
system.mem_ctrl.perBankRdBursts::4               6348                       # Per bank write bursts
system.mem_ctrl.perBankRdBursts::5               6213                       # Per bank write bursts
system.mem_ctrl.perBankRdBursts::6               6194                       # Per bank write bursts
system.mem_ctrl.perBankRdBursts::7               6207                       # Per bank write bursts
system.mem_ctrl.perBankRdBursts::8               6213                       # Per bank write bursts
system.mem_ctrl.perBankRdBursts::9               6212                       # Per bank write bursts
system.mem_ctrl.perBankRdBursts::10              6245                       # Per bank write bursts
system.mem_ctrl.perBankRdBursts::11              6295                       # Per bank write bursts
system.mem_ctrl.perBankRdBursts::12              6276                       # Per bank write bursts
system.mem_ctrl.perBankRdBursts::13              6294                       # Per bank write bursts
system.mem_ctrl.perBankRdBursts::14              6395                       # Per bank write bursts
system.mem_ctrl.perBankRdBursts::15              6308                       # Per bank write bursts
system.mem_ctrl.perBankWrBursts::0               5650                       # Per bank write bursts
system.mem_ctrl.perBankWrBursts::1               5650                       # Per bank write bursts
system.mem_ctrl.perBankWrBursts::2               5676                       # Per bank write bursts
system.mem_ctrl.perBankWrBursts::3               5642                       # Per bank write bursts
system.mem_ctrl.perBankWrBursts::4               5695                       # Per bank write bursts
system.mem_ctrl.perBankWrBursts::5               5649                       # Per bank write bursts
system.mem_ctrl.perBankWrBursts::6               5650                       # Per bank write bursts
system.mem_ctrl.perBankWrBursts::7               5632                       # Per bank write bursts
system.mem_ctrl.perBankWrBursts::8               5632                       # Per bank write bursts
system.mem_ctrl.perBankWrBursts::9               5699                       # Per bank write bursts
system.mem_ctrl.perBankWrBursts::10              5697                       # Per bank write bursts
system.mem_ctrl.perBankWrBursts::11              5760                       # Per bank write bursts
system.mem_ctrl.perBankWrBursts::12              5760                       # Per bank write bursts
system.mem_ctrl.perBankWrBursts::13              5762                       # Per bank write bursts
system.mem_ctrl.perBankWrBursts::14              5822                       # Per bank write bursts
system.mem_ctrl.perBankWrBursts::15              5760                       # Per bank write bursts
system.mem_ctrl.avgRdQLen                        1.00                       # Average read queue length when enqueuing
system.mem_ctrl.avgWrQLen                       24.88                       # Average write queue length when enqueuing
system.mem_ctrl.totQLat                    1042211000                       # Total ticks spent queuing
system.mem_ctrl.totBusLat                   500980000                       # Total ticks spent in databus transfers
system.mem_ctrl.totMemAccLat               2920886000                       # Total ticks spent from burst creation until serviced by the DRAM
system.mem_ctrl.avgQLat                      10401.72                       # Average queueing delay per DRAM burst
system.mem_ctrl.avgBusLat                     5000.00                       # Average bus latency per DRAM burst
system.mem_ctrl.avgMemAccLat                 29151.72                       # Average memory access latency per DRAM burst
system.mem_ctrl.numRdRetry                          0                       # Number of times read queue was full causing retry
system.mem_ctrl.numWrRetry                          0                       # Number of times write queue was full causing retry
system.mem_ctrl.readRowHits                     89793                       # Number of row buffer hits during reads
system.mem_ctrl.writeRowHits                    82351                       # Number of row buffer hits during writes
system.mem_ctrl.readRowHitRate                  89.62                       # Row buffer hit rate for reads
system.mem_ctrl.writeRowHitRate                 90.33                       # Row buffer hit rate for writes
system.mem_ctrl.readPktSize::0                      0                       # Read request sizes (log2)
system.mem_ctrl.readPktSize::1                      0                       # Read request sizes (log2)
system.mem_ctrl.readPktSize::2                      0                       # Read request sizes (log2)
system.mem_ctrl.readPktSize::3                      0                       # Read request sizes (log2)
system.mem_ctrl.readPktSize::4                      0                       # Read request sizes (log2)
system.mem_ctrl.readPktSize::5                      0                       # Read request sizes (log2)
system.mem_ctrl.readPktSize::6                 100196                       # Read request sizes (log2)
system.mem_ctrl.writePktSize::0                     0                       # Write request sizes (log2)
system.mem_ctrl.writePktSize::1                     0                       # Write request sizes (log2)
system.mem_ctrl.writePktSize::2                     0                       # Write request sizes (log2)
system.mem_ctrl.writePktSize::3                     0                       # Write request sizes (log2)
system.mem_ctrl.writePktSize::4                     0                       # Write request sizes (log2)
system.mem_ctrl.writePktSize::5                     0                       # Write request sizes (log2)
system.mem_ctrl.writePktSize::6                 91163                       # Write request sizes (log2)
system.mem_ctrl.rdQLenPdf::0                   100196                       # What read queue length does an incoming req see
system.mem_ctrl.rdQLenPdf::1                        0                       # What read queue length does an incoming req see
system.mem_ctrl.rdQLenPdf::2                        0                       # What read queue length does an incoming req see
system.mem_ctrl.rdQLenPdf::3                        0                       # What read queue length does an incoming req see
system.mem_ctrl.rdQLenPdf::4                        0                       # What read queue length does an incoming req see
system.mem_ctrl.rdQLenPdf::5                        0                       # What read queue length does an incoming req see
system.mem_ctrl.rdQLenPdf::6                        0                       # What read queue length does an incoming req see
system.mem_ctrl.rdQLenPdf::7                        0                       # What read queue length does an incoming req see
system.mem_ctrl.rdQLenPdf::8                        0                       # What read queue length does an incoming req see
system.mem_ctrl.rdQLenPdf::9                        0                       # What read queue length does an incoming req see
system.mem_ctrl.rdQLenPdf::10                       0                       # What read queue length does an incoming req see
system.mem_ctrl.rdQLenPdf::11                       0                       # What read queue length does an incoming req see
system.mem_ctrl.rdQLenPdf::12                       0                       # What read queue length does an incoming req see
system.mem_ctrl.rdQLenPdf::13                       0                       # What read queue length does an incoming req see
system.mem_ctrl.rdQLenPdf::14                       0                       # What read queue length does an incoming req see
system.mem_ctrl.rdQLenPdf::15                       0                       # What read queue length does an incoming req see
system.mem_ctrl.rdQLenPdf::16                       0                       # What read queue length does an incoming req see
system.mem_ctrl.rdQLenPdf::17                       0                       # What read queue length does an incoming req see
system.mem_ctrl.rdQLenPdf::18                       0                       # What read queue length does an incoming req see
system.mem_ctrl.rdQLenPdf::19                       0                       # What read queue length does an incoming req see
system.mem_ctrl.rdQLenPdf::20                       0                       # What read queue length does an incoming req see
system.mem_ctrl.rdQLenPdf::21                       0                       # What read queue length does an incoming req see
system.mem_ctrl.rdQLenPdf::22                       0                       # What read queue length does an incoming req see
system.mem_ctrl.rdQLenPdf::23                       0                       # What read queue length does an incoming req see
system.mem_ctrl.rdQLenPdf::24                       0                       # What read queue length does an incoming req see
system.mem_ctrl.rdQLenPdf::25                       0                       # What read queue length does an incoming req see
system.mem_ctrl.rdQLenPdf::26                       0                       # What read queue length does an incoming req see
system.mem_ctrl.rdQLenPdf::27                       0                       # What read queue length does an incoming req see
system.mem_ctrl.rdQLenPdf::28                       0                       # What read queue length does an incoming req see
system.mem_ctrl.rdQLenPdf::29                       0                       # What read queue length does an incoming req see
system.mem_ctrl.rdQLenPdf::30                       0                       # What read queue length does an incoming req see
system.mem_ctrl.rdQLenPdf::31                       0                       # What read queue length does an incoming req see
system.mem_ctrl.wrQLenPdf::0                        1                       # What write queue length does an incoming req see
system.mem_ctrl.wrQLenPdf::1                        1                       # What write queue length does an incoming req see
system.mem_ctrl.wrQLenPdf::2                        1                       # What write queue length does an incoming req see
system.mem_ctrl.wrQLenPdf::3                        1                       # What write queue length does an incoming req see
system.mem_ctrl.wrQLenPdf::4                        1                       # What write queue length does an incoming req see
system.mem_ctrl.wrQLenPdf::5                        1                       # What write queue length does an incoming req see
system.mem_ctrl.wrQLenPdf::6                        1                       # What write queue length does an incoming req see
system.mem_ctrl.wrQLenPdf::7                        1                       # What write queue length does an incoming req see
system.mem_ctrl.wrQLenPdf::8                        1                       # What write queue length does an incoming req see
system.mem_ctrl.wrQLenPdf::9                        1                       # What write queue length does an incoming req see
system.mem_ctrl.wrQLenPdf::10                       1                       # What write queue length does an incoming req see
system.mem_ctrl.wrQLenPdf::11                       1                       # What write queue length does an incoming req see
system.mem_ctrl.wrQLenPdf::12                       1                       # What write queue length does an incoming req see
system.mem_ctrl.wrQLenPdf::13                       1                       # What write queue length does an incoming req see
system.mem_ctrl.wrQLenPdf::14                       1                       # What write queue length does an incoming req see
system.mem_ctrl.wrQLenPdf::15                    2143                       # What write queue length does an incoming req see
system.mem_ctrl.wrQLenPdf::16                    3158                       # What write queue length does an incoming req see
system.mem_ctrl.wrQLenPdf::17                    5359                       # What write queue length does an incoming req see
system.mem_ctrl.wrQLenPdf::18                    5364                       # What write queue length does an incoming req see
system.mem_ctrl.wrQLenPdf::19                    5364                       # What write queue length does an incoming req see
system.mem_ctrl.wrQLenPdf::20                    5364                       # What write queue length does an incoming req see
system.mem_ctrl.wrQLenPdf::21                    5364                       # What write queue length does an incoming req see
system.mem_ctrl.wrQLenPdf::22                    5364                       # What write queue length does an incoming req see
system.mem_ctrl.wrQLenPdf::23                    5364                       # What write queue length does an incoming req see
system.mem_ctrl.wrQLenPdf::24                    5364                       # What write queue length does an incoming req see
system.mem_ctrl.wrQLenPdf::25                    5364                       # What write queue length does an incoming req see
system.mem_ctrl.wrQLenPdf::26                    5364                       # What write queue length does an incoming req see
system.mem_ctrl.wrQLenPdf::27                    5397                       # What write queue length does an incoming req see
system.mem_ctrl.wrQLenPdf::28                    5363                       # What write queue length does an incoming req see
system.mem_ctrl.wrQLenPdf::29                    5363                       # What write queue length does an incoming req see
system.mem_ctrl.wrQLenPdf::30                    5363                       # What write queue length does an incoming req see
system.mem_ctrl.wrQLenPdf::31                    5363                       # What write queue length does an incoming req see
system.mem_ctrl.wrQLenPdf::32                    5363                       # What write queue length does an incoming req see
system.mem_ctrl.wrQLenPdf::33                       0                       # What write queue length does an incoming req see
system.mem_ctrl.wrQLenPdf::34                       0                       # What write queue length does an incoming req see
system.mem_ctrl.wrQLenPdf::35                       0                       # What write queue length does an incoming req see
system.mem_ctrl.wrQLenPdf::36                       0                       # What write queue length does an incoming req see
system.mem_ctrl.wrQLenPdf::37                       0                       # What write queue length does an incoming req see
system.mem_ctrl.wrQLenPdf::38                       0                       # What write queue length does an incoming req see
system.mem_ctrl.wrQLenPdf::39                       0                       # What write queue length does an incoming req see
system.mem_ctrl.wrQLenPdf::40                       0                       # What write queue length does an incoming req see
system.mem_ctrl.wrQLenPdf::41                       0                       # What write queue length does an incoming req see
system.mem_ctrl.wrQLenPdf::42                       0                       # What write queue length does an incoming req see
system.mem_ctrl.wrQLenPdf::43                       0                       # What write queue length does an incoming req see
system.mem_ctrl.wrQLenPdf::44                       0                       # What write queue length does an incoming req see
system.mem_ctrl.wrQLenPdf::45                       0                       # What write queue length does an incoming req see
system.mem_ctrl.wrQLenPdf::46                       0                       # What write queue length does an incoming req see
system.mem_ctrl.wrQLenPdf::47                       0                       # What write queue length does an incoming req see
system.mem_ctrl.wrQLenPdf::48                       0                       # What write queue length does an incoming req see
system.mem_ctrl.wrQLenPdf::49                       0                       # What write queue length does an incoming req see
system.mem_ctrl.wrQLenPdf::50                       0                       # What write queue length does an incoming req see
system.mem_ctrl.wrQLenPdf::51                       0                       # What write queue length does an incoming req see
system.mem_ctrl.wrQLenPdf::52                       0                       # What write queue length does an incoming req see
system.mem_ctrl.wrQLenPdf::53                       0                       # What write queue length does an incoming req see
system.mem_ctrl.wrQLenPdf::54                       0                       # What write queue length does an incoming req see
system.mem_ctrl.wrQLenPdf::55                       0                       # What write queue length does an incoming req see
system.mem_ctrl.wrQLenPdf::56                       0                       # What write queue length does an incoming req see
system.mem_ctrl.wrQLenPdf::57                       0                       # What write queue length does an incoming req see
system.mem_ctrl.wrQLenPdf::58                       0                       # What write queue length does an incoming req see
system.mem_ctrl.wrQLenPdf::59                       0                       # What write queue length does an incoming req see
system.mem_ctrl.wrQLenPdf::60                       0                       # What write queue length does an incoming req see
system.mem_ctrl.wrQLenPdf::61                       0                       # What write queue length does an incoming req see
system.mem_ctrl.wrQLenPdf::62                       0                       # What write queue length does an incoming req see
system.mem_ctrl.wrQLenPdf::63                       0                       # What write queue length does an incoming req see
system.mem_ctrl.bytesPerActivate::samples        19187                       # Bytes accessed per row activation
system.mem_ctrl.bytesPerActivate::mean     638.172096                       # Bytes accessed per row activation
system.mem_ctrl.bytesPerActivate::gmean    423.987957                       # Bytes accessed per row activation
system.mem_ctrl.bytesPerActivate::stdev    415.461271                       # Bytes accessed per row activation
system.mem_ctrl.bytesPerActivate::0-127          2378     12.39%     12.39% # Bytes accessed per row activation
system.mem_ctrl.bytesPerActivate::128-255         3916     20.41%     32.80% # Bytes accessed per row activation
system.mem_ctrl.bytesPerActivate::256-383          700      3.65%     36.45% # Bytes accessed per row activation
system.mem_ctrl.bytesPerActivate::384-511          551      2.87%     39.32% # Bytes accessed per row activation
system.mem_ctrl.bytesPerActivate::512-639          812      4.23%     43.56% # Bytes accessed per row activation
system.mem_ctrl.bytesPerActivate::640-767          541      2.82%     46.38% # Bytes accessed per row activation
system.mem_ctrl.bytesPerActivate::768-895          638      3.33%     49.70% # Bytes accessed per row activation
system.mem_ctrl.bytesPerActivate::896-1023          674      3.51%     53.21% # Bytes accessed per row activation
system.mem_ctrl.bytesPerActivate::1024-1151         8977     46.79%    100.00% # Bytes accessed per row activation
system.mem_ctrl.bytesPerActivate::total         19187                       # Bytes accessed per row activation
system.mem_ctrl.rdPerTurnAround::samples         5363                       # Reads before turning the bus around for writes
system.mem_ctrl.rdPerTurnAround::mean       18.680962                       # Reads before turning the bus around for writes
system.mem_ctrl.rdPerTurnAround::gmean      17.048197                       # Reads before turning the bus around for writes
system.mem_ctrl.rdPerTurnAround::stdev     106.016357                       # Reads before turning the bus around for writes
system.mem_ctrl.rdPerTurnAround::0-255           5360     99.94%     99.94% # Reads before turning the bus around for writes
system.mem_ctrl.rdPerTurnAround::256-511            2      0.04%     99.98% # Reads before turning the bus around for writes
system.mem_ctrl.rdPerTurnAround::7680-7935            1      0.02%    100.00% # Reads before turning the bus around for writes
system.mem_ctrl.rdPerTurnAround::total           5363                       # Reads before turning the bus around for writes
system.mem_ctrl.wrPerTurnAround::samples         5363                       # Writes before turning the bus around for reads
system.mem_ctrl.wrPerTurnAround::mean       16.993474                       # Writes before turning the bus around for reads
system.mem_ctrl.wrPerTurnAround::gmean      16.969448                       # Writes before turning the bus around for reads
system.mem_ctrl.wrPerTurnAround::stdev       0.903470                       # Writes before turning the bus around for reads
system.mem_ctrl.wrPerTurnAround::16              2206     41.13%     41.13% # Writes before turning the bus around for reads
system.mem_ctrl.wrPerTurnAround::17               986     18.39%     59.52% # Writes before turning the bus around for reads
system.mem_ctrl.wrPerTurnAround::18              2171     40.48%    100.00% # Writes before turning the bus around for reads
system.mem_ctrl.wrPerTurnAround::total           5363                       # Writes before turning the bus around for reads
system.mem_ctrl.bytesReadDRAM                 6412544                       # Total number of bytes read from DRAM
system.mem_ctrl.bytesReadWrQ                        0                       # Total number of bytes read from write queue
system.mem_ctrl.bytesWritten                  5832704                       # Total number of bytes written to DRAM
system.mem_ctrl.bytesReadSys                  6412544                       # Total read bytes from the system interface side
system.mem_ctrl.bytesWrittenSys               5834432                       # Total written bytes from the system interface side
system.mem_ctrl.avgRdBW                        514.84                       # Average DRAM read bandwidth in MiByte/s
system.mem_ctrl.avgWrBW                        468.29                       # Average achieved write bandwidth in MiByte/s
system.mem_ctrl.avgRdBWSys                     514.84                       # Average system read bandwidth in MiByte/s
system.mem_ctrl.avgWrBWSys                     468.43                       # Average system write bandwidth in MiByte/s
system.mem_ctrl.peakBW                       12800.00                       # Theoretical peak bandwidth in MiByte/s
system.mem_ctrl.busUtil                          7.68                       # Data bus utilization in percentage
system.mem_ctrl.busUtilRead                      4.02                       # Data bus utilization in percentage for reads
system.mem_ctrl.busUtilWrite                     3.66                       # Data bus utilization in percentage for writes
system.mem_ctrl.totGap                    12455228000                       # Total gap between requests
system.mem_ctrl.avgGap                       65088.28                       # Average gap between requests
system.mem_ctrl.masterReadBytes::.cpu.inst        48192                       # Per-master bytes read from memory
system.mem_ctrl.masterReadBytes::.cpu.data      6364352                       # Per-master bytes read from memory
system.mem_ctrl.masterWriteBytes::.writebacks      5832704                       # Per-master bytes write to memory
system.mem_ctrl.masterReadRate::.cpu.inst 3869197.488361577503                       # Per-master bytes read from memory rate (Bytes/sec)
system.mem_ctrl.masterReadRate::.cpu.data 510975572.158220887184                       # Per-master bytes read from memory rate (Bytes/sec)
system.mem_ctrl.masterWriteRate::.writebacks 468291078.750757932663                       # Per-master bytes write to memory rate (Bytes/sec)
system.mem_ctrl.masterReadAccesses::.cpu.inst          753                       # Per-master read serviced memory accesses
system.mem_ctrl.masterReadAccesses::.cpu.data        99443                       # Per-master read serviced memory accesses
system.mem_ctrl.masterWriteAccesses::.writebacks        91163                       # Per-master write serviced memory accesses
system.mem_ctrl.masterReadTotalLat::.cpu.inst     19783000                       # Per-master read total memory access latency
system.mem_ctrl.masterReadTotalLat::.cpu.data   2901103000                       # Per-master read total memory access latency
system.mem_ctrl.masterWriteTotalLat::.writebacks 295681757250                       # Per-master write total memory access latency
system.mem_ctrl.masterReadAvgLat::.cpu.inst     26272.24                       # Per-master read average memory access latency
system.mem_ctrl.masterReadAvgLat::.cpu.data     29173.53                       # Per-master read average memory access latency
system.mem_ctrl.masterWriteAvgLat::.writebacks   3243440.40                       # Per-master write average memory access latency
system.mem_ctrl.pageHitRate                     89.96                       # Row buffer hit rate, read and write combined
system.mem_ctrl.rank1.actEnergy              68536860                       # Energy for activate commands per rank (pJ)
system.mem_ctrl.rank1.preEnergy              36428205                       # Energy for precharge commands per rank (pJ)
system.mem_ctrl.rank1.readEnergy            358699320                       # Energy for read commands per rank (pJ)
system.mem_ctrl.rank1.writeEnergy           239556240                       # Energy for write commands per rank (pJ)
system.mem_ctrl.rank1.refreshEnergy      982809360.000000                       # Energy for refresh commands per rank (pJ)
system.mem_ctrl.rank1.actBackEnergy        2985408060                       # Energy for active background per rank (pJ)
system.mem_ctrl.rank1.preBackEnergy        2268805920                       # Energy for precharge background per rank (pJ)
system.mem_ctrl.rank1.actPowerDownEnergy            0                       # Energy for active power-down per rank (pJ)
system.mem_ctrl.rank1.prePowerDownEnergy            0                       # Energy for precharge power-down per rank (pJ)
system.mem_ctrl.rank1.selfRefreshEnergy             0                       # Energy for self refresh per rank (pJ)
system.mem_ctrl.rank1.totalEnergy          6940243965                       # Total energy per rank (pJ)
system.mem_ctrl.rank1.averagePower         557.212287                       # Core power per rank (mW)
system.mem_ctrl.rank1.totalIdleTime                 0                       # Total Idle time Per DRAM Rank
system.mem_ctrl.rank1.memoryStateTime::IDLE   5797874000                       # Time in different power states
system.mem_ctrl.rank1.memoryStateTime::REF    415740000                       # Time in different power states
system.mem_ctrl.rank1.memoryStateTime::SREF            0                       # Time in different power states
system.mem_ctrl.rank1.memoryStateTime::PRE_PDN            0                       # Time in different power states
system.mem_ctrl.rank1.memoryStateTime::ACT   6241682000                       # Time in different power states
system.mem_ctrl.rank1.memoryStateTime::ACT_PDN            0                       # Time in different power states
system.mem_ctrl.rank0.actEnergy              68465460                       # Energy for activate commands per rank (pJ)
system.mem_ctrl.rank0.preEnergy              36386460                       # Energy for precharge commands per rank (pJ)
system.mem_ctrl.rank0.readEnergy            356700120                       # Energy for read commands per rank (pJ)
system.mem_ctrl.rank0.writeEnergy           236173680                       # Energy for write commands per rank (pJ)
system.mem_ctrl.rank0.refreshEnergy      982809360.000000                       # Energy for refresh commands per rank (pJ)
system.mem_ctrl.rank0.actBackEnergy        2981575380                       # Energy for active background per rank (pJ)
system.mem_ctrl.rank0.preBackEnergy        2272033440                       # Energy for precharge background per rank (pJ)
system.mem_ctrl.rank0.actPowerDownEnergy            0                       # Energy for active power-down per rank (pJ)
system.mem_ctrl.rank0.prePowerDownEnergy            0                       # Energy for precharge power-down per rank (pJ)
system.mem_ctrl.rank0.selfRefreshEnergy             0                       # Energy for self refresh per rank (pJ)
system.mem_ctrl.rank0.totalEnergy          6934143900                       # Total energy per rank (pJ)
system.mem_ctrl.rank0.averagePower         556.722530                       # Core power per rank (mW)
system.mem_ctrl.rank0.totalIdleTime                 0                       # Total Idle time Per DRAM Rank
system.mem_ctrl.rank0.memoryStateTime::IDLE   5808034000                       # Time in different power states
system.mem_ctrl.rank0.memoryStateTime::REF    415740000                       # Time in different power states
system.mem_ctrl.rank0.memoryStateTime::SREF            0                       # Time in different power states
system.mem_ctrl.rank0.memoryStateTime::PRE_PDN            0                       # Time in different power states
system.mem_ctrl.rank0.memoryStateTime::ACT   6231522000                       # Time in different power states
system.mem_ctrl.rank0.memoryStateTime::ACT_PDN            0                       # Time in different power states
system.mem_ctrl.power_state.pwrStateResidencyTicks::UNDEFINED  12455296000                       # Cumulative time (in ticks) in various power states
system.cache_medium.blocked_cycles::no_mshrs            0                       # number of cycles access was blocked
system.cache_medium.blocked_cycles::no_targets            0                       # number of cycles access was blocked
system.cache_medium.blocked::no_mshrs               0                       # number of cycles access was blocked
system.cache_medium.blocked::no_targets             0                       # number of cycles access was blocked
system.cache_medium.avg_blocked_cycles::no_mshrs          nan                       # average number of cycles each access was blocked
system.cache_medium.avg_blocked_cycles::no_targets          nan                       # average number of cycles each access was blocked
system.cache_medium.replacements                    0                       # number of replacements
system.cache_medium.power_state.pwrStateResidencyTicks::UNDEFINED  12455296000                       # Cumulative time (in ticks) in various power states
system.cache_medium.tags.tagsinuse                  0                       # Cycle average of tags in use
system.cache_medium.tags.total_refs                 0                       # Total number of references to valid blocks.
system.cache_medium.tags.sampled_refs               0                       # Sample count of references to valid blocks.
system.cache_medium.tags.avg_refs                 nan                       # Average number of references to valid blocks.
system.cache_medium.tags.warmup_cycle               0                       # Cycle when the warmup percentage was hit.
system.cache_medium.tags.tag_accesses               0                       # Number of tag accesses
system.cache_medium.tags.data_accesses              0                       # Number of data accesses
system.cache_medium.tags.power_state.pwrStateResidencyTicks::UNDEFINED  12455296000                       # Cumulative time (in ticks) in various power states
system.clk_domain.clock                          1000                       # Clock period in ticks
system.clk_domain.voltage_domain.voltage            1                       # Voltage in Volts
system.dcache.demand_hits::.cpu.data           711610                       # number of demand (read+write) hits
system.dcache.demand_hits::total               711610                       # number of demand (read+write) hits
system.dcache.overall_hits::.cpu.data          711610                       # number of overall hits
system.dcache.overall_hits::total              711610                       # number of overall hits
system.dcache.demand_misses::.cpu.data          99589                       # number of demand (read+write) misses
system.dcache.demand_misses::total              99589                       # number of demand (read+write) misses
system.dcache.overall_misses::.cpu.data         99589                       # number of overall misses
system.dcache.overall_misses::total             99589                       # number of overall misses
system.dcache.demand_miss_latency::.cpu.data   7901724000                       # number of demand (read+write) miss cycles
system.dcache.demand_miss_latency::total   7901724000                       # number of demand (read+write) miss cycles
system.dcache.overall_miss_latency::.cpu.data   7901724000                       # number of overall miss cycles
system.dcache.overall_miss_latency::total   7901724000                       # number of overall miss cycles
system.dcache.demand_accesses::.cpu.data       811199                       # number of demand (read+write) accesses
system.dcache.demand_accesses::total           811199                       # number of demand (read+write) accesses
system.dcache.overall_accesses::.cpu.data       811199                       # number of overall (read+write) accesses
system.dcache.overall_accesses::total          811199                       # number of overall (read+write) accesses
system.dcache.demand_miss_rate::.cpu.data     0.122768                       # miss rate for demand accesses
system.dcache.demand_miss_rate::total        0.122768                       # miss rate for demand accesses
system.dcache.overall_miss_rate::.cpu.data     0.122768                       # miss rate for overall accesses
system.dcache.overall_miss_rate::total       0.122768                       # miss rate for overall accesses
system.dcache.demand_avg_miss_latency::.cpu.data 79343.341132                       # average overall miss latency
system.dcache.demand_avg_miss_latency::total 79343.341132                       # average overall miss latency
system.dcache.overall_avg_miss_latency::.cpu.data 79343.341132                       # average overall miss latency
system.dcache.overall_avg_miss_latency::total 79343.341132                       # average overall miss latency
system.dcache.blocked_cycles::no_mshrs              0                       # number of cycles access was blocked
system.dcache.blocked_cycles::no_targets            0                       # number of cycles access was blocked
system.dcache.blocked::no_mshrs                     0                       # number of cycles access was blocked
system.dcache.blocked::no_targets                   0                       # number of cycles access was blocked
system.dcache.avg_blocked_cycles::no_mshrs          nan                       # average number of cycles each access was blocked
system.dcache.avg_blocked_cycles::no_targets          nan                       # average number of cycles each access was blocked
system.dcache.writebacks::.writebacks           99160                       # number of writebacks
system.dcache.writebacks::total                 99160                       # number of writebacks
system.dcache.demand_mshr_misses::.cpu.data        99589                       # number of demand (read+write) MSHR misses
system.dcache.demand_mshr_misses::total         99589                       # number of demand (read+write) MSHR misses
system.dcache.overall_mshr_misses::.cpu.data        99589                       # number of overall MSHR misses
system.dcache.overall_mshr_misses::total        99589                       # number of overall MSHR misses
system.dcache.demand_mshr_miss_latency::.cpu.data   7702548000                       # number of demand (read+write) MSHR miss cycles
system.dcache.demand_mshr_miss_latency::total   7702548000                       # number of demand (read+write) MSHR miss cycles
system.dcache.overall_mshr_miss_latency::.cpu.data   7702548000                       # number of overall MSHR miss cycles
system.dcache.overall_mshr_miss_latency::total   7702548000                       # number of overall MSHR miss cycles
[...]
system.dcache.tags.occ_percent::total        0.998697                       # Average percentage of cache occupancy
system.dcache.tags.occ_task_id_blocks::1024          256                       # Occupied blocks per task id
system.dcache.tags.age_task_id_blocks_1024::0           80                       # Occupied blocks per task id
system.dcache.tags.age_task_id_blocks_1024::1          176                       # Occupied blocks per task id
system.dcache.tags.occ_task_id_percent::1024            1                       # Percentage of cache occupancy per task id
system.dcache.tags.tag_accesses               6535784                       # Number of tag accesses
system.dcache.tags.data_accesses              6535784                       # Number of data accesses
system.dcache.tags.power_state.pwrStateResidencyTicks::UNDEFINED  89760484000                       # Cumulative time (in ticks) in various power states
system.cache_large.blocked_cycles::no_mshrs            0                       # number of cycles access was blocked
system.cache_large.blocked_cycles::no_targets            0                       # number of cycles access was blocked
system.cache_large.blocked::no_mshrs                0                       # number of cycles access was blocked
system.cache_large.blocked::no_targets              0                       # number of cycles access was blocked
system.cache_large.avg_blocked_cycles::no_mshrs          nan                       # average number of cycles each access was blocked
system.cache_large.avg_blocked_cycles::no_targets          nan                       # average number of cycles each access was blocked
system.cache_large.replacements                     0                       # number of replacements
system.cache_large.power_state.pwrStateResidencyTicks::UNDEFINED  89760484000                       # Cumulative time (in ticks) in various power states
system.cache_large.tags.tagsinuse                   0                       # Cycle average of tags in use
system.cache_large.tags.total_refs                  0                       # Total number of references to valid blocks.
system.cache_large.tags.sampled_refs                0                       # Sample count of references to valid blocks.
system.cache_large.tags.avg_refs                  nan                       # Average number of references to valid blocks.
system.cache_large.tags.warmup_cycle                0                       # Cycle when the warmup percentage was hit.
system.cache_large.tags.tag_accesses                0                       # Number of tag accesses
system.cache_large.tags.data_accesses               0                       # Number of data accesses
system.cache_large.tags.power_state.pwrStateResidencyTicks::UNDEFINED  89760484000                       # Cumulative time (in ticks) in various power states
system.l2cache.demand_hits::.cpu.inst              70                       # number of demand (read+write) hits
system.l2cache.demand_hits::.cpu.data             127                       # number of demand (read+write) hits
system.l2cache.demand_hits::total                 197                       # number of demand (read+write) hits
system.l2cache.overall_hits::.cpu.inst             70                       # number of overall hits
system.l2cache.overall_hits::.cpu.data            127                       # number of overall hits
system.l2cache.overall_hits::total                197                       # number of overall hits
system.l2cache.demand_misses::.cpu.inst           889                       # number of demand (read+write) misses
system.l2cache.demand_misses::.cpu.data        724461                       # number of demand (read+write) misses
system.l2cache.demand_misses::total            725350                       # number of demand (read+write) misses
system.l2cache.overall_misses::.cpu.inst          889                       # number of overall misses
system.l2cache.overall_misses::.cpu.data       724461                       # number of overall misses
system.l2cache.overall_misses::total           725350                       # number of overall misses
system.l2cache.demand_miss_latency::.cpu.inst     54939000                       # number of demand (read+write) miss cycles
system.l2cache.demand_miss_latency::.cpu.data  53549663000                       # number of demand (read+write) miss cycles
system.l2cache.demand_miss_latency::total  53604602000                       # number of demand (read+write) miss cycles
system.l2cache.overall_miss_latency::.cpu.inst     54939000                       # number of overall miss cycles
system.l2cache.overall_miss_latency::.cpu.data  53549663000                       # number of overall miss cycles
system.l2cache.overall_miss_latency::total  53604602000                       # number of overall miss cycles
system.l2cache.demand_accesses::.cpu.inst          959                       # number of demand (read+write) accesses
system.l2cache.demand_accesses::.cpu.data       724588                       # number of demand (read+write) accesses
system.l2cache.demand_accesses::total          725547                       # number of demand (read+write) accesses
system.l2cache.overall_accesses::.cpu.inst          959                       # number of overall (read+write) accesses
system.l2cache.overall_accesses::.cpu.data       724588                       # number of overall (read+write) accesses
system.l2cache.overall_accesses::total         725547                       # number of overall (read+write) accesses
system.l2cache.demand_miss_rate::.cpu.inst     0.927007                       # miss rate for demand accesses
system.l2cache.demand_miss_rate::.cpu.data     0.999825                       # miss rate for demand accesses
system.l2cache.demand_miss_rate::total       0.999728                       # miss rate for demand accesses
system.l2cache.overall_miss_rate::.cpu.inst     0.927007                       # miss rate for overall accesses
system.l2cache.overall_miss_rate::.cpu.data     0.999825                       # miss rate for overall accesses
system.l2cache.overall_miss_rate::total      0.999728                       # miss rate for overall accesses
system.l2cache.demand_avg_miss_latency::.cpu.inst 61798.650169                       # average overall miss latency
system.l2cache.demand_avg_miss_latency::.cpu.data 73916.557275                       # average overall miss latency
system.l2cache.demand_avg_miss_latency::total 73901.705384                       # average overall miss latency
system.l2cache.overall_avg_miss_latency::.cpu.inst 61798.650169                       # average overall miss latency
system.l2cache.overall_avg_miss_latency::.cpu.data 73916.557275                       # average overall miss latency
system.l2cache.overall_avg_miss_latency::total 73901.705384                       # average overall miss latency
system.l2cache.blocked_cycles::no_mshrs             0                       # number of cycles access was blocked
system.l2cache.blocked_cycles::no_targets            0                       # number of cycles access was blocked
system.l2cache.blocked::no_mshrs                    0                       # number of cycles access was blocked
system.l2cache.blocked::no_targets                  0                       # number of cycles access was blocked
system.l2cache.avg_blocked_cycles::no_mshrs          nan                       # average number of cycles each access was blocked
system.l2cache.avg_blocked_cycles::no_targets          nan                       # average number of cycles each access was blocked
system.l2cache.writebacks::.writebacks         723871                       # number of writebacks
system.l2cache.writebacks::total               723871                       # number of writebacks
system.l2cache.demand_mshr_misses::.cpu.inst          889                       # number of demand (read+write) MSHR misses
system.l2cache.demand_mshr_misses::.cpu.data       724461                       # number of demand (read+write) MSHR misses
system.l2cache.demand_mshr_misses::total       725350                       # number of demand (read+write) MSHR misses
system.l2cache.overall_mshr_misses::.cpu.inst          889                       # number of overall MSHR misses
system.l2cache.overall_mshr_misses::.cpu.data       724461                       # number of overall MSHR misses
system.l2cache.overall_mshr_misses::total       725350                       # number of overall MSHR misses
system.l2cache.demand_mshr_miss_latency::.cpu.inst     53161000                       # number of demand (read+write) MSHR miss cycles
system.l2cache.demand_mshr_miss_latency::.cpu.data  52100741000                       # number of demand (read+write) MSHR miss cycles
system.l2cache.demand_mshr_miss_latency::total  52153902000                       # number of demand (read+write) MSHR miss cycles
system.l2cache.overall_mshr_miss_latency::.cpu.inst     53161000                       # number of overall MSHR miss cycles
system.l2cache.overall_mshr_miss_latency::.cpu.data  52100741000                       # number of overall MSHR miss cycles
system.l2cache.overall_mshr_miss_latency::total  52153902000                       # number of overall MSHR miss cycles
system.l2cache.demand_mshr_miss_rate::.cpu.inst     0.927007                       # mshr miss rate for demand accesses
system.l2cache.demand_mshr_miss_rate::.cpu.data     0.999825                       # mshr miss rate for demand accesses
system.l2cache.demand_mshr_miss_rate::total     0.999728                       # mshr miss rate for demand accesses
system.l2cache.overall_mshr_miss_rate::.cpu.inst     0.927007                       # mshr miss rate for overall accesses
system.l2cache.overall_mshr_miss_rate::.cpu.data     0.999825                       # mshr miss rate for overall accesses
system.l2cache.overall_mshr_miss_rate::total     0.999728                       # mshr miss rate for overall accesses
system.l2cache.demand_avg_mshr_miss_latency::.cpu.inst 59798.650169                       # average overall mshr miss latency
system.l2cache.demand_avg_mshr_miss_latency::.cpu.data 71916.557275                       # average overall mshr miss latency
system.l2cache.demand_avg_mshr_miss_latency::total 71901.705384                       # average overall mshr miss latency
system.l2cache.overall_avg_mshr_miss_latency::.cpu.inst 59798.650169                       # average overall mshr miss latency
system.l2cache.overall_avg_mshr_miss_latency::.cpu.data 71916.557275                       # average overall mshr miss latency
system.l2cache.overall_avg_mshr_miss_latency::total 71901.705384                       # average overall mshr miss latency
system.l2cache.replacements                    725075                       # number of replacements
system.l2cache.ReadReq_hits::.cpu.inst             70                       # number of ReadReq hits
system.l2cache.ReadReq_hits::.cpu.data            127                       # number of ReadReq hits
system.l2cache.ReadReq_hits::total                197                       # number of ReadReq hits
system.l2cache.ReadReq_misses::.cpu.inst          889                       # number of ReadReq misses
system.l2cache.ReadReq_misses::.cpu.data       724461                       # number of ReadReq misses
system.l2cache.ReadReq_misses::total           725350                       # number of ReadReq misses
system.l2cache.ReadReq_miss_latency::.cpu.inst     54939000                       # number of ReadReq miss cycles
system.l2cache.ReadReq_miss_latency::.cpu.data  53549663000                       # number of ReadReq miss cycles
system.l2cache.ReadReq_miss_latency::total  53604602000                       # number of ReadReq miss cycles
system.l2cache.ReadReq_accesses::.cpu.inst          959                       # number of ReadReq accesses(hits+misses)
system.l2cache.ReadReq_accesses::.cpu.data       724588                       # number of ReadReq accesses(hits+misses)
system.l2cache.ReadReq_accesses::total         725547                       # number of ReadReq accesses(hits+misses)
system.l2cache.ReadReq_miss_rate::.cpu.inst     0.927007                       # miss rate for ReadReq accesses
system.l2cache.ReadReq_miss_rate::.cpu.data     0.999825                       # miss rate for ReadReq accesses
system.l2cache.ReadReq_miss_rate::total      0.999728                       # miss rate for ReadReq accesses
system.l2cache.ReadReq_avg_miss_latency::.cpu.inst 61798.650169                       # average ReadReq miss latency
system.l2cache.ReadReq_avg_miss_latency::.cpu.data 73916.557275                       # average ReadReq miss latency
system.l2cache.ReadReq_avg_miss_latency::total 73901.705384                       # average ReadReq miss latency
system.l2cache.ReadReq_mshr_misses::.cpu.inst          889                       # number of ReadReq MSHR misses
system.l2cache.ReadReq_mshr_misses::.cpu.data       724461                       # number of ReadReq MSHR misses
system.l2cache.ReadReq_mshr_misses::total       725350                       # number of ReadReq MSHR misses
system.l2cache.ReadReq_mshr_miss_latency::.cpu.inst     53161000                       # number of ReadReq MSHR miss cycles
system.l2cache.ReadReq_mshr_miss_latency::.cpu.data  52100741000                       # number of ReadReq MSHR miss cycles
system.l2cache.ReadReq_mshr_miss_latency::total  52153902000                       # number of ReadReq MSHR miss cycles
system.l2cache.ReadReq_mshr_miss_rate::.cpu.inst     0.927007                       # mshr miss rate for ReadReq accesses
system.l2cache.ReadReq_mshr_miss_rate::.cpu.data     0.999825                       # mshr miss rate for ReadReq accesses
system.l2cache.ReadReq_mshr_miss_rate::total     0.999728                       # mshr miss rate for ReadReq accesses
system.l2cache.ReadReq_avg_mshr_miss_latency::.cpu.inst 59798.650169                       # average ReadReq mshr miss latency
system.l2cache.ReadReq_avg_mshr_miss_latency::.cpu.data 71916.557275                       # average ReadReq mshr miss latency
system.l2cache.ReadReq_avg_mshr_miss_latency::total 71901.705384                       # average ReadReq mshr miss latency
system.l2cache.WritebackDirty_hits::.writebacks       724160                       # number of WritebackDirty hits
system.l2cache.WritebackDirty_hits::total       724160                       # number of WritebackDirty hits
system.l2cache.WritebackDirty_accesses::.writebacks       724160                       # number of WritebackDirty accesses(hits+misses)
system.l2cache.WritebackDirty_accesses::total       724160                       # number of WritebackDirty accesses(hits+misses)
system.l2cache.power_state.pwrStateResidencyTicks::UNDEFINED  89760484000                       # Cumulative time (in ticks) in various power states
system.l2cache.tags.tagsinuse              511.558168                       # Cycle average of tags in use
system.l2cache.tags.total_refs                1449707                       # Total number of references to valid blocks.
system.l2cache.tags.sampled_refs               725587                       # Sample count of references to valid blocks.
system.l2cache.tags.avg_refs                 1.997978                       # Average number of references to valid blocks.
system.l2cache.tags.warmup_cycle                78000                       # Cycle when the warmup percentage was hit.
system.l2cache.tags.occ_blocks::.writebacks     0.117720                       # Average occupied blocks per requestor
system.l2cache.tags.occ_blocks::.cpu.inst     0.720522                       # Average occupied blocks per requestor
system.l2cache.tags.occ_blocks::.cpu.data   510.719926                       # Average occupied blocks per requestor
system.l2cache.tags.occ_percent::.writebacks     0.000230                       # Average percentage of cache occupancy
system.l2cache.tags.occ_percent::.cpu.inst     0.001407                       # Average percentage of cache occupancy
system.l2cache.tags.occ_percent::.cpu.data     0.997500                       # Average percentage of cache occupancy
system.l2cache.tags.occ_percent::total       0.999137                       # Average percentage of cache occupancy
system.l2cache.tags.occ_task_id_blocks::1024          512                       # Occupied blocks per task id
system.l2cache.tags.age_task_id_blocks_1024::0           80                       # Occupied blocks per task id
system.l2cache.tags.age_task_id_blocks_1024::1          432                       # Occupied blocks per task id
system.l2cache.tags.occ_task_id_percent::1024            1                       # Percentage of cache occupancy per task id
system.l2cache.tags.tag_accesses              2175294                       # Number of tag accesses
system.l2cache.tags.data_accesses             2175294                       # Number of data accesses
system.l2cache.tags.power_state.pwrStateResidencyTicks::UNDEFINED  89760484000                       # Cumulative time (in ticks) in various power states
system.l2bar.trans_dist::ReadReq               725547                       # Transaction distribution
system.l2bar.trans_dist::ReadResp              725547                       # Transaction distribution
system.l2bar.trans_dist::WritebackDirty        724160                       # Transaction distribution
system.l2bar.pkt_count_system.dcache.mem_side::system.l2cache.cpu_side      2173336                       # Packet count per connected master and slave (bytes)
system.l2bar.pkt_count_system.icache.mem_side::system.l2cache.cpu_side         1918                       # Packet count per connected master and slave (bytes)
system.l2bar.pkt_count::total                 2175254                       # Packet count per connected master and slave (bytes)
system.l2bar.pkt_size_system.dcache.mem_side::system.l2cache.cpu_side     92719872                       # Cumulative packet size per connected master and slave (bytes)
system.l2bar.pkt_size_system.icache.mem_side::system.l2cache.cpu_side        61376                       # Cumulative packet size per connected master and slave (bytes)
system.l2bar.pkt_size::total                 92781248                       # Cumulative packet size per connected master and slave (bytes)
system.l2bar.respLayer1.occupancy             4795000                       # Layer occupancy (ticks)
system.l2bar.respLayer1.utilization               0.0                       # Layer utilization (%)
system.l2bar.reqLayer0.occupancy           4346347000                       # Layer occupancy (ticks)
system.l2bar.reqLayer0.utilization                4.8                       # Layer utilization (%)
system.l2bar.respLayer0.occupancy          3622940000                       # Layer occupancy (ticks)
system.l2bar.respLayer0.utilization               4.0                       # Layer utilization (%)
system.l2bar.power_state.pwrStateResidencyTicks::UNDEFINED  89760484000                       # Cumulative time (in ticks) in various power states
system.cpu.dtb.walker.power_state.pwrStateResidencyTicks::UNDEFINED  89760484000                       # Cumulative time (in ticks) in various power states
system.cpu.interrupts.clk_domain.clock          16000                       # Clock period in ticks
system.cpu.itb.walker.power_state.pwrStateResidencyTicks::UNDEFINED  89760484000                       # Cumulative time (in ticks) in various power states
system.cpu.power_state.numTransitions               1                       # Number of power state transitions
system.cpu.power_state.pwrStateResidencyTicks::ON  89760484000                       # Cumulative time (in ticks) in various power states

---------- End Simulation Statistics   ----------
