
---------- Begin Simulation Statistics ----------
final_tick                                 5350623000                       # Number of ticks from beginning of simulation (restored from checkpoints and never reset)
host_inst_rate                                  82197                       # Simulator instruction rate (inst/s)
host_mem_usage                               34259344                       # Number of bytes of host memory used
host_op_rate                                   148320                       # Simulator op (including micro ops) rate (op/s)
host_seconds                                    12.17                       # Real time elapsed on the host
host_tick_rate                              439688121                       # Simulator tick rate (ticks/s)
sim_freq                                 1000000000000                       # Frequency of simulated ticks
sim_insts                                     1000238                       # Number of instructions simulated
sim_ops                                       1804916                       # Number of ops (including micro ops) simulated
sim_seconds                                  0.005351                       # Number of seconds simulated
sim_ticks                                  5350623000                       # Number of ticks simulated
system.cpu.Branches                            205589                       # Number of branches fetched
system.cpu.committedInsts                     1000238                       # Number of instructions committed
system.cpu.committedOps                       1804916                       # Number of ops (including micro ops) committed
system.cpu.dtb.rdAccesses                      210806                       # TLB accesses on read requests
system.cpu.dtb.rdMisses                           108                       # TLB misses on read requests
system.cpu.dtb.wrAccesses                      156161                       # TLB accesses on write requests
system.cpu.dtb.wrMisses                           132                       # TLB misses on write requests
system.cpu.idle_fraction                            0                       # Percentage of idle cycles
system.cpu.itb.rdAccesses                           0                       # TLB accesses on read requests
system.cpu.itb.rdMisses                             0                       # TLB misses on read requests
system.cpu.itb.wrAccesses                     1332791                       # TLB accesses on write requests
system.cpu.itb.wrMisses                          1091                       # TLB misses on write requests
system.cpu.not_idle_fraction                        1                       # Percentage of non-idle cycles
system.cpu.numCycles                          5350612                       # number of cpu cycles simulated
system.cpu.numWorkItemsCompleted                    0                       # number of work items this cpu completed
system.cpu.numWorkItemsStarted                      0                       # number of work items this cpu started
system.cpu.num_busy_cycles                    5350612                       # Number of busy cycles
system.cpu.num_cc_register_reads              1099484                       # number of times the CC registers were read
system.cpu.num_cc_register_writes              688493                       # number of times the CC registers were written
system.cpu.num_conditional_control_insts       162376                       # number of instructions that are conditional controls
system.cpu.num_fp_alu_accesses                  26245                       # Number of float alu accesses
system.cpu.num_fp_insts                         26245                       # number of float instructions
system.cpu.num_fp_register_reads                33752                       # number of times the floating registers were read
system.cpu.num_fp_register_writes               10448                       # number of times the floating registers were written
system.cpu.num_func_calls                       26892                       # number of times a function call or return occured
system.cpu.num_idle_cycles                          0                       # Number of idle cycles
system.cpu.num_int_alu_accesses               1784557                       # Number of integer alu accesses
system.cpu.num_int_insts                      1784557                       # number of integer instructions
system.cpu.num_int_register_reads             3577769                       # number of times the integer registers were read
system.cpu.num_int_register_writes            1465302                       # number of times the integer registers were written
system.cpu.num_load_insts                      210702                       # Number of load instructions
system.cpu.num_mem_refs                        366860                       # number of memory refs
system.cpu.num_store_insts                     156158                       # Number of store instructions
system.cpu.num_vec_alu_accesses                     0                       # Number of vector alu accesses
system.cpu.num_vec_insts                            0                       # number of vector instructions
system.cpu.num_vec_register_reads                   0                       # number of times the vector registers were read
system.cpu.num_vec_register_writes                  0                       # number of times the vector registers were written
system.cpu.op_class::No_OpClass                 10807      0.60%      0.60% # Class of executed instruction
system.cpu.op_class::IntAlu                   1398896     77.50%     78.10% # Class of executed instruction
system.cpu.op_class::IntMult                     1046      0.06%     78.16% # Class of executed instruction
system.cpu.op_class::IntDiv                     17600      0.98%     79.13% # Class of executed instruction
system.cpu.op_class::FloatAdd                     477      0.03%     79.16% # Class of executed instruction
system.cpu.op_class::FloatCmp                       0      0.00%     79.16% # Class of executed instruction
system.cpu.op_class::FloatCvt                       0      0.00%     79.16% # Class of executed instruction
system.cpu.op_class::FloatMult                      0      0.00%     79.16% # Class of executed instruction
system.cpu.op_class::FloatMultAcc                   0      0.00%     79.16% # Class of executed instruction
system.cpu.op_class::FloatDiv                       0      0.00%     79.16% # Class of executed instruction
system.cpu.op_class::FloatMisc                      0      0.00%     79.16% # Class of executed instruction
system.cpu.op_class::FloatSqrt                      0      0.00%     79.16% # Class of executed instruction
system.cpu.op_class::SimdAdd                        8      0.00%     79.16% # Class of executed instruction
system.cpu.op_class::SimdAddAcc                     0      0.00%     79.16% # Class of executed instruction
system.cpu.op_class::SimdAlu                     2115      0.12%     79.28% # Class of executed instruction
system.cpu.op_class::SimdCmp                       24      0.00%     79.28% # Class of executed instruction
system.cpu.op_class::SimdCvt                     1900      0.11%     79.38% # Class of executed instruction
system.cpu.op_class::SimdMisc                    5241      0.29%     79.67% # Class of executed instruction
system.cpu.op_class::SimdMult                       0      0.00%     79.67% # Class of executed instruction
system.cpu.op_class::SimdMultAcc                    0      0.00%     79.67% # Class of executed instruction
system.cpu.op_class::SimdShift                      3      0.00%     79.68% # Class of executed instruction
system.cpu.op_class::SimdShiftAcc                   0      0.00%     79.68% # Class of executed instruction
system.cpu.op_class::SimdDiv                        0      0.00%     79.68% # Class of executed instruction
system.cpu.op_class::SimdSqrt                       0      0.00%     79.68% # Class of executed instruction
system.cpu.op_class::SimdFloatAdd                   0      0.00%     79.68% # Class of executed instruction
system.cpu.op_class::SimdFloatAlu                   0      0.00%     79.68% # Class of executed instruction
system.cpu.op_class::SimdFloatCmp                   0      0.00%     79.68% # Class of executed instruction
system.cpu.op_class::SimdFloatCvt                   0      0.00%     79.68% # Class of executed instruction
system.cpu.op_class::SimdFloatDiv                   0      0.00%     79.68% # Class of executed instruction
system.cpu.op_class::SimdFloatMisc                  0      0.00%     79.68% # Class of executed instruction
system.cpu.op_class::SimdFloatMult                  0      0.00%     79.68% # Class of executed instruction
system.cpu.op_class::SimdFloatMultAcc               0      0.00%     79.68% # Class of executed instruction
system.cpu.op_class::SimdFloatSqrt                  0      0.00%     79.68% # Class of executed instruction
system.cpu.op_class::SimdReduceAdd                  0      0.00%     79.68% # Class of executed instruction
system.cpu.op_class::SimdReduceAlu                  0      0.00%     79.68% # Class of executed instruction
system.cpu.op_class::SimdReduceCmp                  0      0.00%     79.68% # Class of executed instruction
system.cpu.op_class::SimdFloatReduceAdd             0      0.00%     79.68% # Class of executed instruction
system.cpu.op_class::SimdFloatReduceCmp             0      0.00%     79.68% # Class of executed instruction
system.cpu.op_class::SimdAes                        0      0.00%     79.68% # Class of executed instruction
system.cpu.op_class::SimdAesMix                     0      0.00%     79.68% # Class of executed instruction
system.cpu.op_class::SimdSha1Hash                   0      0.00%     79.68% # Class of executed instruction
system.cpu.op_class::SimdSha1Hash2                  0      0.00%     79.68% # Class of executed instruction
system.cpu.op_class::SimdSha256Hash                 0      0.00%     79.68% # Class of executed instruction
system.cpu.op_class::SimdSha256Hash2                0      0.00%     79.68% # Class of executed instruction
system.cpu.op_class::SimdShaSigma2                  0      0.00%     79.68% # Class of executed instruction
system.cpu.op_class::SimdShaSigma3                  0      0.00%     79.68% # Class of executed instruction
system.cpu.op_class::SimdPredAlu                    0      0.00%     79.68% # Class of executed instruction
system.cpu.op_class::MemRead                   208981     11.58%     91.25% # Class of executed instruction
system.cpu.op_class::MemWrite                  142263      7.88%     99.13% # Class of executed instruction
system.cpu.op_class::FloatMemRead                1721      0.10%     99.23% # Class of executed instruction
system.cpu.op_class::FloatMemWrite              13895      0.77%    100.00% # Class of executed instruction
system.cpu.op_class::IprAccess                      0      0.00%    100.00% # Class of executed instruction
system.cpu.op_class::InstPrefetch                   0      0.00%    100.00% # Class of executed instruction
system.cpu.op_class::total                    1804977                       # Class of executed instruction
system.cpu.workload.numSyscalls                    44                       # Number of system calls
system.dynamic_cache.flushTicks                     0                       # Ticks taken to flush
system.dynamic_cache.numFlushes                     0                       # Number of Flushes Taken
system.cache_small.demand_hits::.cpu.inst        19867                       # number of demand (read+write) hits
system.cache_small.demand_hits::.cpu.data         4672                       # number of demand (read+write) hits
system.cache_small.demand_hits::total           24539                       # number of demand (read+write) hits
system.cache_small.overall_hits::.cpu.inst        19867                       # number of overall hits
system.cache_small.overall_hits::.cpu.data         4672                       # number of overall hits
system.cache_small.overall_hits::total          24539                       # number of overall hits
system.cache_small.demand_misses::.cpu.inst         9725                       # number of demand (read+write) misses
system.cache_small.demand_misses::.cpu.data         5883                       # number of demand (read+write) misses
system.cache_small.demand_misses::total         15608                       # number of demand (read+write) misses
system.cache_small.overall_misses::.cpu.inst         9725                       # number of overall misses
system.cache_small.overall_misses::.cpu.data         5883                       # number of overall misses
system.cache_small.overall_misses::total        15608                       # number of overall misses
system.cache_small.demand_miss_latency::.cpu.inst    625234000                       # number of demand (read+write) miss cycles
system.cache_small.demand_miss_latency::.cpu.data    364823000                       # number of demand (read+write) miss cycles
system.cache_small.demand_miss_latency::total    990057000                       # number of demand (read+write) miss cycles
system.cache_small.overall_miss_latency::.cpu.inst    625234000                       # number of overall miss cycles
system.cache_small.overall_miss_latency::.cpu.data    364823000                       # number of overall miss cycles
system.cache_small.overall_miss_latency::total    990057000                       # number of overall miss cycles
system.cache_small.demand_accesses::.cpu.inst        29592                       # number of demand (read+write) accesses
system.cache_small.demand_accesses::.cpu.data        10555                       # number of demand (read+write) accesses
system.cache_small.demand_accesses::total        40147                       # number of demand (read+write) accesses
system.cache_small.overall_accesses::.cpu.inst        29592                       # number of overall (read+write) accesses
system.cache_small.overall_accesses::.cpu.data        10555                       # number of overall (read+write) accesses
system.cache_small.overall_accesses::total        40147                       # number of overall (read+write) accesses
system.cache_small.demand_miss_rate::.cpu.inst     0.328636                       # miss rate for demand accesses
system.cache_small.demand_miss_rate::.cpu.data     0.557366                       # miss rate for demand accesses
system.cache_small.demand_miss_rate::total     0.388771                       # miss rate for demand accesses
system.cache_small.overall_miss_rate::.cpu.inst     0.328636                       # miss rate for overall accesses
system.cache_small.overall_miss_rate::.cpu.data     0.557366                       # miss rate for overall accesses
system.cache_small.overall_miss_rate::total     0.388771                       # miss rate for overall accesses
system.cache_small.demand_avg_miss_latency::.cpu.inst 64291.413882                       # average overall miss latency
system.cache_small.demand_avg_miss_latency::.cpu.data 62013.088560                       # average overall miss latency
system.cache_small.demand_avg_miss_latency::total 63432.662737                       # average overall miss latency
system.cache_small.overall_avg_miss_latency::.cpu.inst 64291.413882                       # average overall miss latency
system.cache_small.overall_avg_miss_latency::.cpu.data 62013.088560                       # average overall miss latency
system.cache_small.overall_avg_miss_latency::total 63432.662737                       # average overall miss latency
system.cache_small.blocked_cycles::no_mshrs            0                       # number of cycles access was blocked
system.cache_small.blocked_cycles::no_targets            0                       # number of cycles access was blocked
system.cache_small.blocked::no_mshrs                0                       # number of cycles access was blocked
system.cache_small.blocked::no_targets              0                       # number of cycles access was blocked
system.cache_small.avg_blocked_cycles::no_mshrs          nan                       # average number of cycles each access was blocked
system.cache_small.avg_blocked_cycles::no_targets          nan                       # average number of cycles each access was blocked
system.cache_small.writebacks::.writebacks         4039                       # number of writebacks
system.cache_small.writebacks::total             4039                       # number of writebacks
system.cache_small.demand_mshr_misses::.cpu.inst         9725                       # number of demand (read+write) MSHR misses
system.cache_small.demand_mshr_misses::.cpu.data         5883                       # number of demand (read+write) MSHR misses
system.cache_small.demand_mshr_misses::total        15608                       # number of demand (read+write) MSHR misses
system.cache_small.overall_mshr_misses::.cpu.inst         9725                       # number of overall MSHR misses
system.cache_small.overall_mshr_misses::.cpu.data         5883                       # number of overall MSHR misses
system.cache_small.overall_mshr_misses::total        15608                       # number of overall MSHR misses
system.cache_small.demand_mshr_miss_latency::.cpu.inst    605784000                       # number of demand (read+write) MSHR miss cycles
system.cache_small.demand_mshr_miss_latency::.cpu.data    353057000                       # number of demand (read+write) MSHR miss cycles
system.cache_small.demand_mshr_miss_latency::total    958841000                       # number of demand (read+write) MSHR miss cycles
system.cache_small.overall_mshr_miss_latency::.cpu.inst    605784000                       # number of overall MSHR miss cycles
system.cache_small.overall_mshr_miss_latency::.cpu.data    353057000                       # number of overall MSHR miss cycles
system.cache_small.overall_mshr_miss_latency::total    958841000                       # number of overall MSHR miss cycles
system.cache_small.demand_mshr_miss_rate::.cpu.inst     0.328636                       # mshr miss rate for demand accesses
system.cache_small.demand_mshr_miss_rate::.cpu.data     0.557366                       # mshr miss rate for demand accesses
system.cache_small.demand_mshr_miss_rate::total     0.388771                       # mshr miss rate for demand accesses
system.cache_small.overall_mshr_miss_rate::.cpu.inst     0.328636                       # mshr miss rate for overall accesses
system.cache_small.overall_mshr_miss_rate::.cpu.data     0.557366                       # mshr miss rate for overall accesses
system.cache_small.overall_mshr_miss_rate::total     0.388771                       # mshr miss rate for overall accesses
system.cache_small.demand_avg_mshr_miss_latency::.cpu.inst 62291.413882                       # average overall mshr miss latency
system.cache_small.demand_avg_mshr_miss_latency::.cpu.data 60013.088560                       # average overall mshr miss latency
system.cache_small.demand_avg_mshr_miss_latency::total 61432.662737                       # average overall mshr miss latency
system.cache_small.overall_avg_mshr_miss_latency::.cpu.inst 62291.413882                       # average overall mshr miss latency
system.cache_small.overall_avg_mshr_miss_latency::.cpu.data 60013.088560                       # average overall mshr miss latency
system.cache_small.overall_avg_mshr_miss_latency::total 61432.662737                       # average overall mshr miss latency
system.cache_small.replacements                 15559                       # number of replacements
system.cache_small.ReadReq_hits::.cpu.inst        19867                       # number of ReadReq hits
system.cache_small.ReadReq_hits::.cpu.data         4672                       # number of ReadReq hits
system.cache_small.ReadReq_hits::total          24539                       # number of ReadReq hits
system.cache_small.ReadReq_misses::.cpu.inst         9725                       # number of ReadReq misses
system.cache_small.ReadReq_misses::.cpu.data         5883                       # number of ReadReq misses
system.cache_small.ReadReq_misses::total        15608                       # number of ReadReq misses
system.cache_small.ReadReq_miss_latency::.cpu.inst    625234000                       # number of ReadReq miss cycles
system.cache_small.ReadReq_miss_latency::.cpu.data    364823000                       # number of ReadReq miss cycles
system.cache_small.ReadReq_miss_latency::total    990057000                       # number of ReadReq miss cycles
system.cache_small.ReadReq_accesses::.cpu.inst        29592                       # number of ReadReq accesses(hits+misses)
system.cache_small.ReadReq_accesses::.cpu.data        10555                       # number of ReadReq accesses(hits+misses)
system.cache_small.ReadReq_accesses::total        40147                       # number of ReadReq accesses(hits+misses)
system.cache_small.ReadReq_miss_rate::.cpu.inst     0.328636                       # miss rate for ReadReq accesses
system.cache_small.ReadReq_miss_rate::.cpu.data     0.557366                       # miss rate for ReadReq accesses
system.cache_small.ReadReq_miss_rate::total     0.388771                       # miss rate for ReadReq accesses
system.cache_small.ReadReq_avg_miss_latency::.cpu.inst 64291.413882                       # average ReadReq miss latency
system.cache_small.ReadReq_avg_miss_latency::.cpu.data 62013.088560                       # average ReadReq miss latency
system.cache_small.ReadReq_avg_miss_latency::total 63432.662737                       # average ReadReq miss latency
system.cache_small.ReadReq_mshr_misses::.cpu.inst         9725                       # number of ReadReq MSHR misses
system.cache_small.ReadReq_mshr_misses::.cpu.data         5883                       # number of ReadReq MSHR misses
system.cache_small.ReadReq_mshr_misses::total        15608                       # number of ReadReq MSHR misses
system.cache_small.ReadReq_mshr_miss_latency::.cpu.inst    605784000                       # number of ReadReq MSHR miss cycles
system.cache_small.ReadReq_mshr_miss_latency::.cpu.data    353057000                       # number of ReadReq MSHR miss cycles
system.cache_small.ReadReq_mshr_miss_latency::total    958841000                       # number of ReadReq MSHR miss cycles
system.cache_small.ReadReq_mshr_miss_rate::.cpu.inst     0.328636                       # mshr miss rate for ReadReq accesses
system.cache_small.ReadReq_mshr_miss_rate::.cpu.data     0.557366                       # mshr miss rate for ReadReq accesses
system.cache_small.ReadReq_mshr_miss_rate::total     0.388771                       # mshr miss rate for ReadReq accesses
system.cache_small.ReadReq_avg_mshr_miss_latency::.cpu.inst 62291.413882                       # average ReadReq mshr miss latency
system.cache_small.ReadReq_avg_mshr_miss_latency::.cpu.data 60013.088560                       # average ReadReq mshr miss latency
system.cache_small.ReadReq_avg_mshr_miss_latency::total 61432.662737                       # average ReadReq mshr miss latency
system.cache_small.WritebackDirty_hits::.writebacks         7796                       # number of WritebackDirty hits
system.cache_small.WritebackDirty_hits::total         7796                       # number of WritebackDirty hits
system.cache_small.WritebackDirty_accesses::.writebacks         7796                       # number of WritebackDirty accesses(hits+misses)
system.cache_small.WritebackDirty_accesses::total         7796                       # number of WritebackDirty accesses(hits+misses)
system.cache_small.power_state.pwrStateResidencyTicks::UNDEFINED   5350623000                       # Cumulative time (in ticks) in various power states
system.cache_small.tags.tagsinuse         1852.177595                       # Cycle average of tags in use
system.cache_small.tags.total_refs              40134                       # Total number of references to valid blocks.
system.cache_small.tags.sampled_refs            15559                       # Sample count of references to valid blocks.
system.cache_small.tags.avg_refs             2.579472                       # Average number of references to valid blocks.
system.cache_small.tags.warmup_cycle            76000                       # Cycle when the warmup percentage was hit.
system.cache_small.tags.occ_blocks::.writebacks   136.134913                       # Average occupied blocks per requestor
system.cache_small.tags.occ_blocks::.cpu.inst   684.864862                       # Average occupied blocks per requestor
system.cache_small.tags.occ_blocks::.cpu.data  1031.177819                       # Average occupied blocks per requestor
system.cache_small.tags.occ_percent::.writebacks     0.066472                       # Average percentage of cache occupancy
system.cache_small.tags.occ_percent::.cpu.inst     0.334407                       # Average percentage of cache occupancy
system.cache_small.tags.occ_percent::.cpu.data     0.503505                       # Average percentage of cache occupancy
system.cache_small.tags.occ_percent::total     0.904384                       # Average percentage of cache occupancy
system.cache_small.tags.occ_task_id_blocks::1024         2043                       # Occupied blocks per task id
system.cache_small.tags.age_task_id_blocks_1024::0           27                       # Occupied blocks per task id
system.cache_small.tags.age_task_id_blocks_1024::1          198                       # Occupied blocks per task id
system.cache_small.tags.age_task_id_blocks_1024::2          724                       # Occupied blocks per task id
system.cache_small.tags.age_task_id_blocks_1024::3         1094                       # Occupied blocks per task id
system.cache_small.tags.occ_task_id_percent::1024     0.997559                       # Percentage of cache occupancy per task id
system.cache_small.tags.tag_accesses            65545                       # Number of tag accesses
system.cache_small.tags.data_accesses           65545                       # Number of data accesses
system.cache_small.tags.power_state.pwrStateResidencyTicks::UNDEFINED   5350623000                       # Cumulative time (in ticks) in various power states
system.icache.demand_hits::.cpu.inst          1292739                       # number of demand (read+write) hits
system.icache.demand_hits::total              1292739                       # number of demand (read+write) hits
system.icache.overall_hits::.cpu.inst         1292739                       # number of overall hits
system.icache.overall_hits::total             1292739                       # number of overall hits
system.icache.demand_misses::.cpu.inst          40052                       # number of demand (read+write) misses
system.icache.demand_misses::total              40052                       # number of demand (read+write) misses
system.icache.overall_misses::.cpu.inst         40052                       # number of overall misses
system.icache.overall_misses::total             40052                       # number of overall misses
system.icache.demand_miss_latency::.cpu.inst   1326600000                       # number of demand (read+write) miss cycles
system.icache.demand_miss_latency::total   1326600000                       # number of demand (read+write) miss cycles
system.icache.overall_miss_latency::.cpu.inst   1326600000                       # number of overall miss cycles
system.icache.overall_miss_latency::total   1326600000                       # number of overall miss cycles
system.icache.demand_accesses::.cpu.inst      1332791                       # number of demand (read+write) accesses
system.icache.demand_accesses::total          1332791                       # number of demand (read+write) accesses
system.icache.overall_accesses::.cpu.inst      1332791                       # number of overall (read+write) accesses
system.icache.overall_accesses::total         1332791                       # number of overall (read+write) accesses
system.icache.demand_miss_rate::.cpu.inst     0.030051                       # miss rate for demand accesses
system.icache.demand_miss_rate::total        0.030051                       # miss rate for demand accesses
system.icache.overall_miss_rate::.cpu.inst     0.030051                       # miss rate for overall accesses
system.icache.overall_miss_rate::total       0.030051                       # miss rate for overall accesses
system.icache.demand_avg_miss_latency::.cpu.inst 33121.941476                       # average overall miss latency
system.icache.demand_avg_miss_latency::total 33121.941476                       # average overall miss latency
system.icache.overall_avg_miss_latency::.cpu.inst 33121.941476                       # average overall miss latency
system.icache.overall_avg_miss_latency::total 33121.941476                       # average overall miss latency
system.icache.blocked_cycles::no_mshrs              0                       # number of cycles access was blocked
system.icache.blocked_cycles::no_targets            0                       # number of cycles access was blocked
system.icache.blocked::no_mshrs                     0                       # number of cycles access was blocked
system.icache.blocked::no_targets                   0                       # number of cycles access was blocked
system.icache.avg_blocked_cycles::no_mshrs          nan                       # average number of cycles each access was blocked
system.icache.avg_blocked_cycles::no_targets          nan                       # average number of cycles each access was blocked
system.icache.demand_mshr_misses::.cpu.inst        40052                       # number of demand (read+write) MSHR misses
system.icache.demand_mshr_misses::total         40052                       # number of demand (read+write) MSHR misses
system.icache.overall_mshr_misses::.cpu.inst        40052                       # number of overall MSHR misses
system.icache.overall_mshr_misses::total        40052                       # number of overall MSHR misses
system.icache.demand_mshr_miss_latency::.cpu.inst   1246496000                       # number of demand (read+write) MSHR miss cycles
system.icache.demand_mshr_miss_latency::total   1246496000                       # number of demand (read+write) MSHR miss cycles
system.icache.overall_mshr_miss_latency::.cpu.inst   1246496000                       # number of overall MSHR miss cycles
system.icache.overall_mshr_miss_latency::total   1246496000                       # number of overall MSHR miss cycles
system.icache.demand_mshr_miss_rate::.cpu.inst     0.030051                       # mshr miss rate for demand accesses
system.icache.demand_mshr_miss_rate::total     0.030051                       # mshr miss rate for demand accesses
system.icache.overall_mshr_miss_rate::.cpu.inst     0.030051                       # mshr miss rate for overall accesses
system.icache.overall_mshr_miss_rate::total     0.030051                       # mshr miss rate for overall accesses
system.icache.demand_avg_mshr_miss_latency::.cpu.inst 31121.941476                       # average overall mshr miss latency
system.icache.demand_avg_mshr_miss_latency::total 31121.941476                       # average overall mshr miss latency
system.icache.overall_avg_mshr_miss_latency::.cpu.inst 31121.941476                       # average overall mshr miss latency
system.icache.overall_avg_mshr_miss_latency::total 31121.941476                       # average overall mshr miss latency
system.icache.replacements                      39796                       # number of replacements
system.icache.ReadReq_hits::.cpu.inst         1292739                       # number of ReadReq hits
system.icache.ReadReq_hits::total             1292739                       # number of ReadReq hits
system.icache.ReadReq_misses::.cpu.inst         40052                       # number of ReadReq misses
system.icache.ReadReq_misses::total             40052                       # number of ReadReq misses
system.icache.ReadReq_miss_latency::.cpu.inst   1326600000                       # number of ReadReq miss cycles
system.icache.ReadReq_miss_latency::total   1326600000                       # number of ReadReq miss cycles
system.icache.ReadReq_accesses::.cpu.inst      1332791                       # number of ReadReq accesses(hits+misses)
system.icache.ReadReq_accesses::total         1332791                       # number of ReadReq accesses(hits+misses)
system.icache.ReadReq_miss_rate::.cpu.inst     0.030051                       # miss rate for ReadReq accesses
system.icache.ReadReq_miss_rate::total       0.030051                       # miss rate for ReadReq accesses
system.icache.ReadReq_avg_miss_latency::.cpu.inst 33121.941476                       # average ReadReq miss latency
system.icache.ReadReq_avg_miss_latency::total 33121.941476                       # average ReadReq miss latency
system.icache.ReadReq_mshr_misses::.cpu.inst        40052                       # number of ReadReq MSHR misses
system.icache.ReadReq_mshr_misses::total        40052                       # number of ReadReq MSHR misses
system.icache.ReadReq_mshr_miss_latency::.cpu.inst   1246496000                       # number of ReadReq MSHR miss cycles
system.icache.ReadReq_mshr_miss_latency::total   1246496000                       # number of ReadReq MSHR miss cycles
system.icache.ReadReq_mshr_miss_rate::.cpu.inst     0.030051                       # mshr miss rate for ReadReq accesses
system.icache.ReadReq_mshr_miss_rate::total     0.030051                       # mshr miss rate for ReadReq accesses
system.icache.ReadReq_avg_mshr_miss_latency::.cpu.inst 31121.941476                       # average ReadReq mshr miss latency
system.icache.ReadReq_avg_mshr_miss_latency::total 31121.941476                       # average ReadReq mshr miss latency
system.icache.power_state.pwrStateResidencyTicks::UNDEFINED   5350623000                       # Cumulative time (in ticks) in various power states
system.icache.tags.tagsinuse               250.240908                       # Cycle average of tags in use
system.icache.tags.total_refs                 1321949                       # Total number of references to valid blocks.
system.icache.tags.sampled_refs                 39796                       # Sample count of references to valid blocks.
system.icache.tags.avg_refs                 33.218138                       # Average number of references to valid blocks.
system.icache.tags.warmup_cycle                 82000                       # Cycle when the warmup percentage was hit.
system.icache.tags.occ_blocks::.cpu.inst   250.240908                       # Average occupied blocks per requestor
system.icache.tags.occ_percent::.cpu.inst     0.977504                       # Average percentage of cache occupancy
system.icache.tags.occ_percent::total        0.977504                       # Average percentage of cache occupancy
system.icache.tags.occ_task_id_blocks::1024          256                       # Occupied blocks per task id
system.icache.tags.age_task_id_blocks_1024::0           58                       # Occupied blocks per task id
system.icache.tags.age_task_id_blocks_1024::1          143                       # Occupied blocks per task id
system.icache.tags.age_task_id_blocks_1024::2           53                       # Occupied blocks per task id
system.icache.tags.age_task_id_blocks_1024::3            2                       # Occupied blocks per task id
system.icache.tags.occ_task_id_percent::1024            1                       # Percentage of cache occupancy per task id
system.icache.tags.tag_accesses               1372843                       # Number of tag accesses
system.icache.tags.data_accesses              1372843                       # Number of data accesses
system.icache.tags.power_state.pwrStateResidencyTicks::UNDEFINED   5350623000                       # Cumulative time (in ticks) in various power states
system.membus.trans_dist::ReadReq               15608                       # Transaction distribution
system.membus.trans_dist::ReadResp              15608                       # Transaction distribution
system.membus.trans_dist::WritebackDirty         4039                       # Transaction distribution
system.membus.pkt_count_system.cache_small.mem_side::system.mem_ctrl.port        35255                       # Packet count per connected master and slave (bytes)
system.membus.pkt_count_system.cache_small.mem_side::total        35255                       # Packet count per connected master and slave (bytes)
system.membus.pkt_count::total                  35255                       # Packet count per connected master and slave (bytes)
system.membus.pkt_size_system.cache_small.mem_side::system.mem_ctrl.port      1257408                       # Cumulative packet size per connected master and slave (bytes)
system.membus.pkt_size_system.cache_small.mem_side::total      1257408                       # Cumulative packet size per connected master and slave (bytes)
system.membus.pkt_size::total                 1257408                       # Cumulative packet size per connected master and slave (bytes)
system.membus.reqLayer2.occupancy            35803000                       # Layer occupancy (ticks)
system.membus.reqLayer2.utilization               0.7                       # Layer utilization (%)
system.membus.respLayer1.occupancy           83952000                       # Layer occupancy (ticks)
system.membus.respLayer1.utilization              1.6                       # Layer utilization (%)
system.membus.power_state.pwrStateResidencyTicks::UNDEFINED   5350623000                       # Cumulative time (in ticks) in various power states
system.mem_ctrl.bytes_read::.cpu.inst          622400                       # Number of bytes read from this memory
system.mem_ctrl.bytes_read::.cpu.data          376512                       # Number of bytes read from this memory
system.mem_ctrl.bytes_read::total              998912                       # Number of bytes read from this memory
system.mem_ctrl.bytes_inst_read::.cpu.inst       622400                       # Number of instructions bytes read from this memory
system.mem_ctrl.bytes_inst_read::total         622400                       # Number of instructions bytes read from this memory
system.mem_ctrl.bytes_written::.writebacks       258496                       # Number of bytes written to this memory
system.mem_ctrl.bytes_written::total           258496                       # Number of bytes written to this memory
system.mem_ctrl.num_reads::.cpu.inst             9725                       # Number of read requests responded to by this memory
system.mem_ctrl.num_reads::.cpu.data             5883                       # Number of read requests responded to by this memory
system.mem_ctrl.num_reads::total                15608                       # Number of read requests responded to by this memory
system.mem_ctrl.num_writes::.writebacks          4039                       # Number of write requests responded to by this memory
system.mem_ctrl.num_writes::total                4039                       # Number of write requests responded to by this memory
system.mem_ctrl.bw_read::.cpu.inst          116322903                       # Total read bandwidth from this memory (bytes/s)
system.mem_ctrl.bw_read::.cpu.data           70367881                       # Total read bandwidth from this memory (bytes/s)
system.mem_ctrl.bw_read::total              186690783                       # Total read bandwidth from this memory (bytes/s)
system.mem_ctrl.bw_inst_read::.cpu.inst     116322903                       # Instruction read bandwidth from this memory (bytes/s)
system.mem_ctrl.bw_inst_read::total         116322903                       # Instruction read bandwidth from this memory (bytes/s)
system.mem_ctrl.bw_write::.writebacks        48311384                       # Write bandwidth from this memory (bytes/s)
system.mem_ctrl.bw_write::total              48311384                       # Write bandwidth from this memory (bytes/s)
system.mem_ctrl.bw_total::.writebacks        48311384                       # Total bandwidth to/from this memory (bytes/s)
system.mem_ctrl.bw_total::.cpu.inst         116322903                       # Total bandwidth to/from this memory (bytes/s)
system.mem_ctrl.bw_total::.cpu.data          70367881                       # Total bandwidth to/from this memory (bytes/s)
system.mem_ctrl.bw_total::total             235002167                       # Total bandwidth to/from this memory (bytes/s)
system.mem_ctrl.avgPriority_.writebacks::samples      3810.00                       # Average QoS priority value for accepted requests
system.mem_ctrl.avgPriority_.cpu.inst::samples      9725.00                       # Average QoS priority value for accepted requests
system.mem_ctrl.avgPriority_.cpu.data::samples      5652.00                       # Average QoS priority value for accepted requests
system.mem_ctrl.priorityMinLatency       0.000000018750                       # per QoS priority minimum request to response latency (s)
system.mem_ctrl.priorityMaxLatency       0.001231160500                       # per QoS priority maximum request to response latency (s)
system.mem_ctrl.numReadWriteTurnArounds           221                       # Number of turnarounds from READ to WRITE
system.mem_ctrl.numWriteReadTurnArounds           221                       # Number of turnarounds from WRITE to READ
system.mem_ctrl.numStayReadState                36053                       # Number of times bus staying in READ state
system.mem_ctrl.numStayWriteState                3569                       # Number of times bus staying in WRITE state
system.mem_ctrl.readReqs                        15608                       # Number of read requests accepted
system.mem_ctrl.writeReqs                        4039                       # Number of write requests accepted
system.mem_ctrl.readBursts                      15608                       # Number of DRAM read bursts, including those serviced by the write queue
system.mem_ctrl.writeBursts                      4039                       # Number of DRAM write bursts, including those merged in the write queue
system.mem_ctrl.servicedByWrQ                     231                       # Number of DRAM read bursts serviced by the write queue
system.mem_ctrl.mergedWrBursts                    229                       # Number of DRAM write bursts merged with an existing one
system.mem_ctrl.neitherReadNorWriteReqs             0                       # Number of requests that are neither read nor write
system.mem_ctrl.perBankRdBursts::0               1986                       # Per bank write bursts
system.mem_ctrl.perBankRdBursts::1                825                       # Per bank write bursts
system.mem_ctrl.perBankRdBursts::2                527                       # Per bank write bursts
system.mem_ctrl.perBankRdBursts::3                916                       # Per bank write bursts
system.mem_ctrl.perBankRdBursts::4               1012                       # Per bank write bursts
system.mem_ctrl.perBankRdBursts::5               1051                       # Per bank write bursts
system.mem_ctrl.perBankRdBursts::6               1443                       # Per bank write bursts
system.mem_ctrl.perBankRdBursts::7                765                       # Per bank write bursts
system.mem_ctrl.perBankRdBursts::8                808                       # Per bank write bursts
system.mem_ctrl.perBankRdBursts::9                381                       # Per bank write bursts
system.mem_ctrl.perBankRdBursts::10               987                       # Per bank write bursts
system.mem_ctrl.perBankRdBursts::11              1108                       # Per bank write bursts
system.mem_ctrl.perBankRdBursts::12              1246                       # Per bank write bursts
system.mem_ctrl.perBankRdBursts::13               689                       # Per bank write bursts
system.mem_ctrl.perBankRdBursts::14               641                       # Per bank write bursts
system.mem_ctrl.perBankRdBursts::15               992                       # Per bank write bursts
system.mem_ctrl.perBankWrBursts::0                227                       # Per bank write bursts
system.mem_ctrl.perBankWrBursts::1                177                       # Per bank write bursts
system.mem_ctrl.perBankWrBursts::2                209                       # Per bank write bursts
system.mem_ctrl.perBankWrBursts::3                216                       # Per bank write bursts
system.mem_ctrl.perBankWrBursts::4                175                       # Per bank write bursts
system.mem_ctrl.perBankWrBursts::5                228                       # Per bank write bursts
system.mem_ctrl.perBankWrBursts::6                428                       # Per bank write bursts
system.mem_ctrl.perBankWrBursts::7                171                       # Per bank write bursts
system.mem_ctrl.perBankWrBursts::8                330                       # Per bank write bursts
system.mem_ctrl.perBankWrBursts::9                173                       # Per bank write bursts
system.mem_ctrl.perBankWrBursts::10               298                       # Per bank write bursts
system.mem_ctrl.perBankWrBursts::11               200                       # Per bank write bursts
system.mem_ctrl.perBankWrBursts::12               281                       # Per bank write bursts
system.mem_ctrl.perBankWrBursts::13               159                       # Per bank write bursts
system.mem_ctrl.perBankWrBursts::14               168                       # Per bank write bursts
system.mem_ctrl.perBankWrBursts::15               348                       # Per bank write bursts
system.mem_ctrl.avgRdQLen                        1.00                       # Average read queue length when enqueuing
system.mem_ctrl.avgWrQLen                       24.23                       # Average write queue length when enqueuing
system.mem_ctrl.totQLat                     183063000                       # Total ticks spent queuing
system.mem_ctrl.totBusLat                    76885000                       # Total ticks spent in databus transfers
system.mem_ctrl.totMemAccLat                471381750                       # Total ticks spent from burst creation until serviced by the DRAM
system.mem_ctrl.avgQLat                      11904.99                       # Average queueing delay per DRAM burst
system.mem_ctrl.avgBusLat                     5000.00                       # Average bus latency per DRAM burst
system.mem_ctrl.avgMemAccLat                 30654.99                       # Average memory access latency per DRAM burst
system.mem_ctrl.numRdRetry                          0                       # Number of times read queue was full causing retry
system.mem_ctrl.numWrRetry                          0                       # Number of times write queue was full causing retry
system.mem_ctrl.readRowHits                      9064                       # Number of row buffer hits during reads
system.mem_ctrl.writeRowHits                     2735                       # Number of row buffer hits during writes
system.mem_ctrl.readRowHitRate                  58.95                       # Row buffer hit rate for reads
system.mem_ctrl.writeRowHitRate                 71.78                       # Row buffer hit rate for writes
system.mem_ctrl.readPktSize::0                      0                       # Read request sizes (log2)
system.mem_ctrl.readPktSize::1                      0                       # Read request sizes (log2)
system.mem_ctrl.readPktSize::2                      0                       # Read request sizes (log2)
system.mem_ctrl.readPktSize::3                      0                       # Read request sizes (log2)
system.mem_ctrl.readPktSize::4                      0                       # Read request sizes (log2)
system.mem_ctrl.readPktSize::5                      0                       # Read request sizes (log2)
system.mem_ctrl.readPktSize::6                  15608                       # Read request sizes (log2)
system.mem_ctrl.writePktSize::0                     0                       # Write request sizes (log2)
system.mem_ctrl.writePktSize::1                     0                       # Write request sizes (log2)
system.mem_ctrl.writePktSize::2                     0                       # Write request sizes (log2)
system.mem_ctrl.writePktSize::3                     0                       # Write request sizes (log2)
system.mem_ctrl.writePktSize::4                     0                       # Write request sizes (log2)
system.mem_ctrl.writePktSize::5                     0                       # Write request sizes (log2)
system.mem_ctrl.writePktSize::6                  4039                       # Write request sizes (log2)
system.mem_ctrl.rdQLenPdf::0                    15374                       # What read queue length does an incoming req see
system.mem_ctrl.rdQLenPdf::1                        3                       # What read queue length does an incoming req see
system.mem_ctrl.rdQLenPdf::2                        0                       # What read queue length does an incoming req see
system.mem_ctrl.rdQLenPdf::3                        0                       # What read queue length does an incoming req see
system.mem_ctrl.rdQLenPdf::4                        0                       # What read queue length does an incoming req see
system.mem_ctrl.rdQLenPdf::5                        0                       # What read queue length does an incoming req see
system.mem_ctrl.rdQLenPdf::6                        0                       # What read queue length does an incoming req see
system.mem_ctrl.rdQLenPdf::7                        0                       # What read queue length does an incoming req see
system.mem_ctrl.rdQLenPdf::8                        0                       # What read queue length does an incoming req see
system.mem_ctrl.rdQLenPdf::9                        0                       # What read queue length does an incoming req see
system.mem_ctrl.rdQLenPdf::10                       0                       # What read queue length does an incoming req see
system.mem_ctrl.rdQLenPdf::11                       0                       # What read queue length does an incoming req see
system.mem_ctrl.rdQLenPdf::12                       0                       # What read queue length does an incoming req see
system.mem_ctrl.rdQLenPdf::13                       0                       # What read queue length does an incoming req see
system.mem_ctrl.rdQLenPdf::14                       0                       # What read queue length does an incoming req see
system.mem_ctrl.rdQLenPdf::15                       0                       # What read queue length does an incoming req see
system.mem_ctrl.rdQLenPdf::16                       0                       # What read queue length does an incoming req see
system.mem_ctrl.rdQLenPdf::17                       0                       # What read queue length does an incoming req see
system.mem_ctrl.rdQLenPdf::18                       0                       # What read queue length does an incoming req see
system.mem_ctrl.rdQLenPdf::19                       0                       # What read queue length does an incoming req see
system.mem_ctrl.rdQLenPdf::20                       0                       # What read queue length does an incoming req see
system.mem_ctrl.rdQLenPdf::21                       0                       # What read queue length does an incoming req see
system.mem_ctrl.rdQLenPdf::22                       0                       # What read queue length does an incoming req see
system.mem_ctrl.rdQLenPdf::23                       0                       # What read queue length does an incoming req see
system.mem_ctrl.rdQLenPdf::24                       0                       # What read queue length does an incoming req see
system.mem_ctrl.rdQLenPdf::25                       0                       # What read queue length does an incoming req see
system.mem_ctrl.rdQLenPdf::26                       0                       # What read queue length does an incoming req see
system.mem_ctrl.rdQLenPdf::27                       0                       # What read queue length does an incoming req see
system.mem_ctrl.rdQLenPdf::28                       0                       # What read queue length does an incoming req see
system.mem_ctrl.rdQLenPdf::29                       0                       # What read queue length does an incoming req see
system.mem_ctrl.rdQLenPdf::30                       0                       # What read queue length does an incoming req see
system.mem_ctrl.rdQLenPdf::31                       0                       # What read queue length does an incoming req see
system.mem_ctrl.wrQLenPdf::0                        1                       # What write queue length does an incoming req see
system.mem_ctrl.wrQLenPdf::1                        1                       # What write queue length does an incoming req see
system.mem_ctrl.wrQLenPdf::2                        1                       # What write queue length does an incoming req see
system.mem_ctrl.wrQLenPdf::3                        1                       # What write queue length does an incoming req see
system.mem_ctrl.wrQLenPdf::4                        1                       # What write queue length does an incoming req see
system.mem_ctrl.wrQLenPdf::5                        1                       # What write queue length does an incoming req see
system.mem_ctrl.wrQLenPdf::6                        1                       # What write queue length does an incoming req see
system.mem_ctrl.wrQLenPdf::7                        1                       # What write queue length does an incoming req see
system.mem_ctrl.wrQLenPdf::8                        1                       # What write queue length does an incoming req see
system.mem_ctrl.wrQLenPdf::9                        1                       # What write queue length does an incoming req see
system.mem_ctrl.wrQLenPdf::10                       1                       # What write queue length does an incoming req see
system.mem_ctrl.wrQLenPdf::11                       1                       # What write queue length does an incoming req see
system.mem_ctrl.wrQLenPdf::12                       1                       # What write queue length does an incoming req see
system.mem_ctrl.wrQLenPdf::13                       1                       # What write queue length does an incoming req see
system.mem_ctrl.wrQLenPdf::14                       1                       # What write queue length does an incoming req see
system.mem_ctrl.wrQLenPdf::15                     122                       # What write queue length does an incoming req see
system.mem_ctrl.wrQLenPdf::16                     129                       # What write queue length does an incoming req see
system.mem_ctrl.wrQLenPdf::17                     221                       # What write queue length does an incoming req see
system.mem_ctrl.wrQLenPdf::18                     222                       # What write queue length does an incoming req see
system.mem_ctrl.wrQLenPdf::19                     224                       # What write queue length does an incoming req see
system.mem_ctrl.wrQLenPdf::20                     222                       # What write queue length does an incoming req see
system.mem_ctrl.wrQLenPdf::21                     222                       # What write queue length does an incoming req see
system.mem_ctrl.wrQLenPdf::22                     221                       # What write queue length does an incoming req see
system.mem_ctrl.wrQLenPdf::23                     221                       # What write queue length does an incoming req see
system.mem_ctrl.wrQLenPdf::24                     221                       # What write queue length does an incoming req see
system.mem_ctrl.wrQLenPdf::25                     221                       # What write queue length does an incoming req see
system.mem_ctrl.wrQLenPdf::26                     221                       # What write queue length does an incoming req see
system.mem_ctrl.wrQLenPdf::27                     221                       # What write queue length does an incoming req see
system.mem_ctrl.wrQLenPdf::28                     221                       # What write queue length does an incoming req see
system.mem_ctrl.wrQLenPdf::29                     223                       # What write queue length does an incoming req see
system.mem_ctrl.wrQLenPdf::30                     221                       # What write queue length does an incoming req see
system.mem_ctrl.wrQLenPdf::31                     221                       # What write queue length does an incoming req see
system.mem_ctrl.wrQLenPdf::32                     221                       # What write queue length does an incoming req see
system.mem_ctrl.wrQLenPdf::33                       0                       # What write queue length does an incoming req see
system.mem_ctrl.wrQLenPdf::34                       0                       # What write queue length does an incoming req see
system.mem_ctrl.wrQLenPdf::35                       0                       # What write queue length does an incoming req see
system.mem_ctrl.wrQLenPdf::36                       0                       # What write queue length does an incoming req see
system.mem_ctrl.wrQLenPdf::37                       0                       # What write queue length does an incoming req see
system.mem_ctrl.wrQLenPdf::38                       0                       # What write queue length does an incoming req see
system.mem_ctrl.wrQLenPdf::39                       0                       # What write queue length does an incoming req see
system.mem_ctrl.wrQLenPdf::40                       0                       # What write queue length does an incoming req see
system.mem_ctrl.wrQLenPdf::41                       0                       # What write queue length does an incoming req see
system.mem_ctrl.wrQLenPdf::42                       0                       # What write queue length does an incoming req see
system.mem_ctrl.wrQLenPdf::43                       0                       # What write queue length does an incoming req see
system.mem_ctrl.wrQLenPdf::44                       0                       # What write queue length does an incoming req see
system.mem_ctrl.wrQLenPdf::45                       0                       # What write queue length does an incoming req see
system.mem_ctrl.wrQLenPdf::46                       0                       # What write queue length does an incoming req see
system.mem_ctrl.wrQLenPdf::47                       0                       # What write queue length does an incoming req see
system.mem_ctrl.wrQLenPdf::48                       0                       # What write queue length does an incoming req see
system.mem_ctrl.wrQLenPdf::49                       0                       # What write queue length does an incoming req see
system.mem_ctrl.wrQLenPdf::50                       0                       # What write queue length does an incoming req see
system.mem_ctrl.wrQLenPdf::51                       0                       # What write queue length does an incoming req see
system.mem_ctrl.wrQLenPdf::52                       0                       # What write queue length does an incoming req see
system.mem_ctrl.wrQLenPdf::53                       0                       # What write queue length does an incoming req see
system.mem_ctrl.wrQLenPdf::54                       0                       # What write queue length does an incoming req see
system.mem_ctrl.wrQLenPdf::55                       0                       # What write queue length does an incoming req see
system.mem_ctrl.wrQLenPdf::56                       0                       # What write queue length does an incoming req see
system.mem_ctrl.wrQLenPdf::57                       0                       # What write queue length does an incoming req see
system.mem_ctrl.wrQLenPdf::58                       0                       # What write queue length does an incoming req see
system.mem_ctrl.wrQLenPdf::59                       0                       # What write queue length does an incoming req see
system.mem_ctrl.wrQLenPdf::60                       0                       # What write queue length does an incoming req see
system.mem_ctrl.wrQLenPdf::61                       0                       # What write queue length does an incoming req see
system.mem_ctrl.wrQLenPdf::62                       0                       # What write queue length does an incoming req see
system.mem_ctrl.wrQLenPdf::63                       0                       # What write queue length does an incoming req see
system.mem_ctrl.bytesPerActivate::samples         7365                       # Bytes accessed per row activation
system.mem_ctrl.bytesPerActivate::mean     166.530346                       # Bytes accessed per row activation
system.mem_ctrl.bytesPerActivate::gmean    119.622919                       # Bytes accessed per row activation
system.mem_ctrl.bytesPerActivate::stdev    176.757356                       # Bytes accessed per row activation
system.mem_ctrl.bytesPerActivate::0-127          3581     48.62%     48.62% # Bytes accessed per row activation
system.mem_ctrl.bytesPerActivate::128-255         2376     32.26%     80.88% # Bytes accessed per row activation
system.mem_ctrl.bytesPerActivate::256-383          666      9.04%     89.93% # Bytes accessed per row activation
system.mem_ctrl.bytesPerActivate::384-511          290      3.94%     93.86% # Bytes accessed per row activation
system.mem_ctrl.bytesPerActivate::512-639          172      2.34%     96.20% # Bytes accessed per row activation
system.mem_ctrl.bytesPerActivate::640-767           91      1.24%     97.43% # Bytes accessed per row activation
system.mem_ctrl.bytesPerActivate::768-895           52      0.71%     98.14% # Bytes accessed per row activation
system.mem_ctrl.bytesPerActivate::896-1023           29      0.39%     98.53% # Bytes accessed per row activation
system.mem_ctrl.bytesPerActivate::1024-1151          108      1.47%    100.00% # Bytes accessed per row activation
system.mem_ctrl.bytesPerActivate::total          7365                       # Bytes accessed per row activation
system.mem_ctrl.rdPerTurnAround::samples          221                       # Reads before turning the bus around for writes
system.mem_ctrl.rdPerTurnAround::mean       69.330317                       # Reads before turning the bus around for writes
system.mem_ctrl.rdPerTurnAround::gmean      53.726024                       # Reads before turning the bus around for writes
system.mem_ctrl.rdPerTurnAround::stdev     108.805266                       # Reads before turning the bus around for writes
system.mem_ctrl.rdPerTurnAround::0-63             142     64.25%     64.25% # Reads before turning the bus around for writes
system.mem_ctrl.rdPerTurnAround::64-127            65     29.41%     93.67% # Reads before turning the bus around for writes
system.mem_ctrl.rdPerTurnAround::128-191           10      4.52%     98.19% # Reads before turning the bus around for writes
system.mem_ctrl.rdPerTurnAround::256-319            3      1.36%     99.55% # Reads before turning the bus around for writes
system.mem_ctrl.rdPerTurnAround::1536-1599            1      0.45%    100.00% # Reads before turning the bus around for writes
system.mem_ctrl.rdPerTurnAround::total            221                       # Reads before turning the bus around for writes
system.mem_ctrl.wrPerTurnAround::samples          221                       # Writes before turning the bus around for reads
system.mem_ctrl.wrPerTurnAround::mean       17.140271                       # Writes before turning the bus around for reads
system.mem_ctrl.wrPerTurnAround::gmean      17.111153                       # Writes before turning the bus around for reads
system.mem_ctrl.wrPerTurnAround::stdev       0.996931                       # Writes before turning the bus around for reads
system.mem_ctrl.wrPerTurnAround::16                93     42.08%     42.08% # Writes before turning the bus around for reads
system.mem_ctrl.wrPerTurnAround::17                 7      3.17%     45.25% # Writes before turning the bus around for reads
system.mem_ctrl.wrPerTurnAround::18               118     53.39%     98.64% # Writes before turning the bus around for reads
system.mem_ctrl.wrPerTurnAround::19                 3      1.36%    100.00% # Writes before turning the bus around for reads
system.mem_ctrl.wrPerTurnAround::total            221                       # Writes before turning the bus around for reads
system.mem_ctrl.bytesReadDRAM                  984128                       # Total number of bytes read from DRAM
system.mem_ctrl.bytesReadWrQ                    14784                       # Total number of bytes read from write queue
system.mem_ctrl.bytesWritten                   242432                       # Total number of bytes written to DRAM
system.mem_ctrl.bytesReadSys                   998912                       # Total read bytes from the system interface side
system.mem_ctrl.bytesWrittenSys                258496                       # Total written bytes from the system interface side
system.mem_ctrl.avgRdBW                        183.93                       # Average DRAM read bandwidth in MiByte/s
system.mem_ctrl.avgWrBW                         45.31                       # Average achieved write bandwidth in MiByte/s
system.mem_ctrl.avgRdBWSys                     186.69                       # Average system read bandwidth in MiByte/s
system.mem_ctrl.avgWrBWSys                      48.31                       # Average system write bandwidth in MiByte/s
system.mem_ctrl.peakBW                       12800.00                       # Theoretical peak bandwidth in MiByte/s
system.mem_ctrl.busUtil                          1.79                       # Data bus utilization in percentage
system.mem_ctrl.busUtilRead                      1.44                       # Data bus utilization in percentage for reads
system.mem_ctrl.busUtilWrite                     0.35                       # Data bus utilization in percentage for writes
system.mem_ctrl.totGap                     5349172000                       # Total gap between requests
system.mem_ctrl.avgGap                      272264.06                       # Average gap between requests
system.mem_ctrl.masterReadBytes::.cpu.inst       622400                       # Per-master bytes read from memory
system.mem_ctrl.masterReadBytes::.cpu.data       361728                       # Per-master bytes read from memory
system.mem_ctrl.masterWriteBytes::.writebacks       242432                       # Per-master bytes write to memory
system.mem_ctrl.masterReadRate::.cpu.inst 116322902.959150746465                       # Per-master bytes read from memory rate (Bytes/sec)
system.mem_ctrl.masterReadRate::.cpu.data 67604837.791786119342                       # Per-master bytes read from memory rate (Bytes/sec)
system.mem_ctrl.masterWriteRate::.writebacks 45309116.340284116566                       # Per-master bytes write to memory rate (Bytes/sec)
system.mem_ctrl.masterReadAccesses::.cpu.inst         9725                       # Per-master read serviced memory accesses
system.mem_ctrl.masterReadAccesses::.cpu.data         5883                       # Per-master read serviced memory accesses
system.mem_ctrl.masterWriteAccesses::.writebacks         4039                       # Per-master write serviced memory accesses
system.mem_ctrl.masterReadTotalLat::.cpu.inst    300588250                       # Per-master read total memory access latency
system.mem_ctrl.masterReadTotalLat::.cpu.data    170793500                       # Per-master read total memory access latency
system.mem_ctrl.masterWriteTotalLat::.writebacks 124704305750                       # Per-master write total memory access latency
system.mem_ctrl.masterReadAvgLat::.cpu.inst     30908.82                       # Per-master read average memory access latency
system.mem_ctrl.masterReadAvgLat::.cpu.data     29031.70                       # Per-master read average memory access latency
system.mem_ctrl.masterWriteAvgLat::.writebacks  30875044.75                       # Per-master write average memory access latency
system.mem_ctrl.pageHitRate                     61.49                       # Row buffer hit rate, read and write combined
system.mem_ctrl.rank1.actEnergy              25554060                       # Energy for activate commands per rank (pJ)
system.mem_ctrl.rank1.preEnergy              13582305                       # Energy for precharge commands per rank (pJ)
system.mem_ctrl.rank1.readEnergy             48923280                       # Energy for read commands per rank (pJ)
system.mem_ctrl.rank1.writeEnergy            10215540                       # Energy for write commands per rank (pJ)
system.mem_ctrl.rank1.refreshEnergy      422257680.000000                       # Energy for refresh commands per rank (pJ)
system.mem_ctrl.rank1.actBackEnergy        1907994060                       # Energy for active background per rank (pJ)
system.mem_ctrl.rank1.preBackEnergy         447907680                       # Energy for precharge background per rank (pJ)
system.mem_ctrl.rank1.actPowerDownEnergy            0                       # Energy for active power-down per rank (pJ)
system.mem_ctrl.rank1.prePowerDownEnergy            0                       # Energy for precharge power-down per rank (pJ)
system.mem_ctrl.rank1.selfRefreshEnergy             0                       # Energy for self refresh per rank (pJ)
system.mem_ctrl.rank1.totalEnergy          2876434605                       # Total energy per rank (pJ)
system.mem_ctrl.rank1.averagePower         537.588727                       # Core power per rank (mW)
system.mem_ctrl.rank1.totalIdleTime                 0                       # Total Idle time Per DRAM Rank
system.mem_ctrl.rank1.memoryStateTime::IDLE   1146745750                       # Time in different power states
system.mem_ctrl.rank1.memoryStateTime::REF    178620000                       # Time in different power states
system.mem_ctrl.rank1.memoryStateTime::SREF            0                       # Time in different power states
system.mem_ctrl.rank1.memoryStateTime::PRE_PDN            0                       # Time in different power states
system.mem_ctrl.rank1.memoryStateTime::ACT   4025257250                       # Time in different power states
system.mem_ctrl.rank1.memoryStateTime::ACT_PDN            0                       # Time in different power states
system.mem_ctrl.rank0.actEnergy              27039180                       # Energy for activate commands per rank (pJ)
system.mem_ctrl.rank0.preEnergy              14367870                       # Energy for precharge commands per rank (pJ)
system.mem_ctrl.rank0.readEnergy             60868500                       # Energy for read commands per rank (pJ)
system.mem_ctrl.rank0.writeEnergy             9557820                       # Energy for write commands per rank (pJ)
system.mem_ctrl.rank0.refreshEnergy      422257680.000000                       # Energy for refresh commands per rank (pJ)
system.mem_ctrl.rank0.actBackEnergy        1972354470                       # Energy for active background per rank (pJ)
system.mem_ctrl.rank0.preBackEnergy         393709440                       # Energy for precharge background per rank (pJ)
system.mem_ctrl.rank0.actPowerDownEnergy            0                       # Energy for active power-down per rank (pJ)
system.mem_ctrl.rank0.prePowerDownEnergy            0                       # Energy for precharge power-down per rank (pJ)
system.mem_ctrl.rank0.selfRefreshEnergy             0                       # Energy for self refresh per rank (pJ)
system.mem_ctrl.rank0.totalEnergy          2900154960                       # Total energy per rank (pJ)
system.mem_ctrl.rank0.averagePower         542.021922                       # Core power per rank (mW)
system.mem_ctrl.rank0.totalIdleTime                 0                       # Total Idle time Per DRAM Rank
system.mem_ctrl.rank0.memoryStateTime::IDLE   1004299500                       # Time in different power states
system.mem_ctrl.rank0.memoryStateTime::REF    178620000                       # Time in different power states
system.mem_ctrl.rank0.memoryStateTime::SREF            0                       # Time in different power states
system.mem_ctrl.rank0.memoryStateTime::PRE_PDN            0                       # Time in different power states
system.mem_ctrl.rank0.memoryStateTime::ACT   4167703500                       # Time in different power states
system.mem_ctrl.rank0.memoryStateTime::ACT_PDN            0                       # Time in different power states
system.mem_ctrl.power_state.pwrStateResidencyTicks::UNDEFINED   5350623000                       # Cumulative time (in ticks) in various power states
system.cache_medium.blocked_cycles::no_mshrs            0                       # number of cycles access was blocked
system.cache_medium.blocked_cycles::no_targets            0                       # number of cycles access was blocked
system.cache_medium.blocked::no_mshrs               0                       # number of cycles access was blocked
system.cache_medium.blocked::no_targets             0                       # number of cycles access was blocked
system.cache_medium.avg_blocked_cycles::no_mshrs          nan                       # average number of cycles each access was blocked
system.cache_medium.avg_blocked_cycles::no_targets          nan                       # average number of cycles each access was blocked
system.cache_medium.replacements                    0                       # number of replacements
system.cache_medium.power_state.pwrStateResidencyTicks::UNDEFINED   5350623000                       # Cumulative time (in ticks) in various power states
system.cache_medium.tags.tagsinuse                  0                       # Cycle average of tags in use
system.cache_medium.tags.total_refs                 0                       # Total number of references to valid blocks.
system.cache_medium.tags.sampled_refs               0                       # Sample count of references to valid blocks.
system.cache_medium.tags.avg_refs                 nan                       # Average number of references to valid blocks.
system.cache_medium.tags.warmup_cycle               0                       # Cycle when the warmup percentage was hit.
system.cache_medium.tags.tag_accesses               0                       # Number of tag accesses
system.cache_medium.tags.data_accesses              0                       # Number of data accesses
system.cache_medium.tags.power_state.pwrStateResidencyTicks::UNDEFINED   5350623000                       # Cumulative time (in ticks) in various power states
system.clk_domain.clock                          1000                       # Clock period in ticks
system.clk_domain.voltage_domain.voltage            1                       # Voltage in Volts
system.dcache.demand_hits::.cpu.data           349171                       # number of demand (read+write) hits
system.dcache.demand_hits::total               349171                       # number of demand (read+write) hits
system.dcache.overall_hits::.cpu.data          349694                       # number of overall hits
system.dcache.overall_hits::total              349694                       # number of overall hits
system.dcache.demand_misses::.cpu.data          16904                       # number of demand (read+write) misses
system.dcache.demand_misses::total              16904                       # number of demand (read+write) misses
system.dcache.overall_misses::.cpu.data         17212                       # number of overall misses
system.dcache.overall_misses::total             17212                       # number of overall misses
system.dcache.demand_miss_latency::.cpu.data    632791000                       # number of demand (read+write) miss cycles
system.dcache.demand_miss_latency::total    632791000                       # number of demand (read+write) miss cycles
system.dcache.overall_miss_latency::.cpu.data    653616000                       # number of overall miss cycles
system.dcache.overall_miss_latency::total    653616000                       # number of overall miss cycles
system.dcache.demand_accesses::.cpu.data       366075                       # number of demand (read+write) accesses
system.dcache.demand_accesses::total           366075                       # number of demand (read+write) accesses
system.dcache.overall_accesses::.cpu.data       366906                       # number of overall (read+write) accesses
system.dcache.overall_accesses::total          366906                       # number of overall (read+write) accesses
system.dcache.demand_miss_rate::.cpu.data     0.046176                       # miss rate for demand accesses
system.dcache.demand_miss_rate::total        0.046176                       # miss rate for demand accesses
system.dcache.overall_miss_rate::.cpu.data     0.046911                       # miss rate for overall accesses
system.dcache.overall_miss_rate::total       0.046911                       # miss rate for overall accesses
system.dcache.demand_avg_miss_latency::.cpu.data 37434.394226                       # average overall miss latency
system.dcache.demand_avg_miss_latency::total 37434.394226                       # average overall miss latency
system.dcache.overall_avg_miss_latency::.cpu.data 37974.436440                       # average overall miss latency
system.dcache.overall_avg_miss_latency::total 37974.436440                       # average overall miss latency
system.dcache.blocked_cycles::no_mshrs              0                       # number of cycles access was blocked
system.dcache.blocked_cycles::no_targets            0                       # number of cycles access was blocked
system.dcache.blocked::no_mshrs                     0                       # number of cycles access was blocked
system.dcache.blocked::no_targets                   0                       # number of cycles access was blocked
system.dcache.avg_blocked_cycles::no_mshrs          nan                       # average number of cycles each access was blocked
system.dcache.avg_blocked_cycles::no_targets          nan                       # average number of cycles each access was blocked
system.dcache.writebacks::.writebacks            9172                       # number of writebacks
system.dcache.writebacks::total                  9172                       # number of writebacks
system.dcache.demand_mshr_misses::.cpu.data        16904                       # number of demand (read+write) MSHR misses
system.dcache.demand_mshr_misses::total         16904                       # number of demand (read+write) MSHR misses
[...]
system.dcache.tags.age_task_id_blocks_1024::1          163                       # Occupied blocks per task id
system.dcache.tags.age_task_id_blocks_1024::2           54                       # Occupied blocks per task id
system.dcache.tags.occ_task_id_percent::1024            1                       # Percentage of cache occupancy per task id
system.dcache.tags.tag_accesses                735210                       # Number of tag accesses
system.dcache.tags.data_accesses               735210                       # Number of data accesses
system.dcache.tags.power_state.pwrStateResidencyTicks::UNDEFINED  10472520000                       # Cumulative time (in ticks) in various power states
system.cache_large.blocked_cycles::no_mshrs            0                       # number of cycles access was blocked
system.cache_large.blocked_cycles::no_targets            0                       # number of cycles access was blocked
system.cache_large.blocked::no_mshrs                0                       # number of cycles access was blocked
system.cache_large.blocked::no_targets              0                       # number of cycles access was blocked
system.cache_large.avg_blocked_cycles::no_mshrs          nan                       # average number of cycles each access was blocked
system.cache_large.avg_blocked_cycles::no_targets          nan                       # average number of cycles each access was blocked
system.cache_large.replacements                     0                       # number of replacements
system.cache_large.power_state.pwrStateResidencyTicks::UNDEFINED  10472520000                       # Cumulative time (in ticks) in various power states
system.cache_large.tags.tagsinuse                   0                       # Cycle average of tags in use
system.cache_large.tags.total_refs                  0                       # Total number of references to valid blocks.
system.cache_large.tags.sampled_refs                0                       # Sample count of references to valid blocks.
system.cache_large.tags.avg_refs                  nan                       # Average number of references to valid blocks.
system.cache_large.tags.warmup_cycle                0                       # Cycle when the warmup percentage was hit.
system.cache_large.tags.tag_accesses                0                       # Number of tag accesses
system.cache_large.tags.data_accesses               0                       # Number of data accesses
system.cache_large.tags.power_state.pwrStateResidencyTicks::UNDEFINED  10472520000                       # Cumulative time (in ticks) in various power states
system.l2cache.demand_hits::.cpu.inst           18062                       # number of demand (read+write) hits
system.l2cache.demand_hits::.cpu.data           14114                       # number of demand (read+write) hits
system.l2cache.demand_hits::total               32176                       # number of demand (read+write) hits
system.l2cache.overall_hits::.cpu.inst          18062                       # number of overall hits
system.l2cache.overall_hits::.cpu.data          14114                       # number of overall hits
system.l2cache.overall_hits::total              32176                       # number of overall hits
system.l2cache.demand_misses::.cpu.inst         59198                       # number of demand (read+write) misses
system.l2cache.demand_misses::.cpu.data         23869                       # number of demand (read+write) misses
system.l2cache.demand_misses::total             83067                       # number of demand (read+write) misses
system.l2cache.overall_misses::.cpu.inst        59198                       # number of overall misses
system.l2cache.overall_misses::.cpu.data        23869                       # number of overall misses
system.l2cache.overall_misses::total            83067                       # number of overall misses
system.l2cache.demand_miss_latency::.cpu.inst   2230576000                       # number of demand (read+write) miss cycles
system.l2cache.demand_miss_latency::.cpu.data   1053729000                       # number of demand (read+write) miss cycles
system.l2cache.demand_miss_latency::total   3284305000                       # number of demand (read+write) miss cycles
system.l2cache.overall_miss_latency::.cpu.inst   2230576000                       # number of overall miss cycles
system.l2cache.overall_miss_latency::.cpu.data   1053729000                       # number of overall miss cycles
system.l2cache.overall_miss_latency::total   3284305000                       # number of overall miss cycles
system.l2cache.demand_accesses::.cpu.inst        77260                       # number of demand (read+write) accesses
system.l2cache.demand_accesses::.cpu.data        37983                       # number of demand (read+write) accesses
system.l2cache.demand_accesses::total          115243                       # number of demand (read+write) accesses
system.l2cache.overall_accesses::.cpu.inst        77260                       # number of overall (read+write) accesses
system.l2cache.overall_accesses::.cpu.data        37983                       # number of overall (read+write) accesses
system.l2cache.overall_accesses::total         115243                       # number of overall (read+write) accesses
system.l2cache.demand_miss_rate::.cpu.inst     0.766218                       # miss rate for demand accesses
system.l2cache.demand_miss_rate::.cpu.data     0.628413                       # miss rate for demand accesses
system.l2cache.demand_miss_rate::total       0.720799                       # miss rate for demand accesses
system.l2cache.overall_miss_rate::.cpu.inst     0.766218                       # miss rate for overall accesses
system.l2cache.overall_miss_rate::.cpu.data     0.628413                       # miss rate for overall accesses
system.l2cache.overall_miss_rate::total      0.720799                       # miss rate for overall accesses
system.l2cache.demand_avg_miss_latency::.cpu.inst 37679.921619                       # average overall miss latency
system.l2cache.demand_avg_miss_latency::.cpu.data 44146.340442                       # average overall miss latency
system.l2cache.demand_avg_miss_latency::total 39538.023523                       # average overall miss latency
system.l2cache.overall_avg_miss_latency::.cpu.inst 37679.921619                       # average overall miss latency
system.l2cache.overall_avg_miss_latency::.cpu.data 44146.340442                       # average overall miss latency
system.l2cache.overall_avg_miss_latency::total 39538.023523                       # average overall miss latency
system.l2cache.blocked_cycles::no_mshrs             0                       # number of cycles access was blocked
system.l2cache.blocked_cycles::no_targets            0                       # number of cycles access was blocked
system.l2cache.blocked::no_mshrs                    0                       # number of cycles access was blocked
system.l2cache.blocked::no_targets                  0                       # number of cycles access was blocked
system.l2cache.avg_blocked_cycles::no_mshrs          nan                       # average number of cycles each access was blocked
system.l2cache.avg_blocked_cycles::no_targets          nan                       # average number of cycles each access was blocked
system.l2cache.writebacks::.writebacks          15661                       # number of writebacks
system.l2cache.writebacks::total                15661                       # number of writebacks
system.l2cache.demand_mshr_misses::.cpu.inst        59198                       # number of demand (read+write) MSHR misses
system.l2cache.demand_mshr_misses::.cpu.data        23869                       # number of demand (read+write) MSHR misses
system.l2cache.demand_mshr_misses::total        83067                       # number of demand (read+write) MSHR misses
system.l2cache.overall_mshr_misses::.cpu.inst        59198                       # number of overall MSHR misses
system.l2cache.overall_mshr_misses::.cpu.data        23869                       # number of overall MSHR misses
system.l2cache.overall_mshr_misses::total        83067                       # number of overall MSHR misses
system.l2cache.demand_mshr_miss_latency::.cpu.inst   2112180000                       # number of demand (read+write) MSHR miss cycles
system.l2cache.demand_mshr_miss_latency::.cpu.data   1005991000                       # number of demand (read+write) MSHR miss cycles
system.l2cache.demand_mshr_miss_latency::total   3118171000                       # number of demand (read+write) MSHR miss cycles
system.l2cache.overall_mshr_miss_latency::.cpu.inst   2112180000                       # number of overall MSHR miss cycles
system.l2cache.overall_mshr_miss_latency::.cpu.data   1005991000                       # number of overall MSHR miss cycles
system.l2cache.overall_mshr_miss_latency::total   3118171000                       # number of overall MSHR miss cycles
system.l2cache.demand_mshr_miss_rate::.cpu.inst     0.766218                       # mshr miss rate for demand accesses
system.l2cache.demand_mshr_miss_rate::.cpu.data     0.628413                       # mshr miss rate for demand accesses
system.l2cache.demand_mshr_miss_rate::total     0.720799                       # mshr miss rate for demand accesses
system.l2cache.overall_mshr_miss_rate::.cpu.inst     0.766218                       # mshr miss rate for overall accesses
system.l2cache.overall_mshr_miss_rate::.cpu.data     0.628413                       # mshr miss rate for overall accesses
system.l2cache.overall_mshr_miss_rate::total     0.720799                       # mshr miss rate for overall accesses
system.l2cache.demand_avg_mshr_miss_latency::.cpu.inst 35679.921619                       # average overall mshr miss latency
system.l2cache.demand_avg_mshr_miss_latency::.cpu.data 42146.340442                       # average overall mshr miss latency
system.l2cache.demand_avg_mshr_miss_latency::total 37538.023523                       # average overall mshr miss latency
system.l2cache.overall_avg_mshr_miss_latency::.cpu.inst 35679.921619                       # average overall mshr miss latency
system.l2cache.overall_avg_mshr_miss_latency::.cpu.data 42146.340442                       # average overall mshr miss latency
system.l2cache.overall_avg_mshr_miss_latency::total 37538.023523                       # average overall mshr miss latency
system.l2cache.replacements                     95112                       # number of replacements
system.l2cache.ReadReq_hits::.cpu.inst          18062                       # number of ReadReq hits
system.l2cache.ReadReq_hits::.cpu.data          14114                       # number of ReadReq hits
system.l2cache.ReadReq_hits::total              32176                       # number of ReadReq hits
system.l2cache.ReadReq_misses::.cpu.inst        59198                       # number of ReadReq misses
system.l2cache.ReadReq_misses::.cpu.data        23869                       # number of ReadReq misses
system.l2cache.ReadReq_misses::total            83067                       # number of ReadReq misses
system.l2cache.ReadReq_miss_latency::.cpu.inst   2230576000                       # number of ReadReq miss cycles
system.l2cache.ReadReq_miss_latency::.cpu.data   1053729000                       # number of ReadReq miss cycles
system.l2cache.ReadReq_miss_latency::total   3284305000                       # number of ReadReq miss cycles
system.l2cache.ReadReq_accesses::.cpu.inst        77260                       # number of ReadReq accesses(hits+misses)
system.l2cache.ReadReq_accesses::.cpu.data        37983                       # number of ReadReq accesses(hits+misses)
system.l2cache.ReadReq_accesses::total         115243                       # number of ReadReq accesses(hits+misses)
system.l2cache.ReadReq_miss_rate::.cpu.inst     0.766218                       # miss rate for ReadReq accesses
system.l2cache.ReadReq_miss_rate::.cpu.data     0.628413                       # miss rate for ReadReq accesses
system.l2cache.ReadReq_miss_rate::total      0.720799                       # miss rate for ReadReq accesses
system.l2cache.ReadReq_avg_miss_latency::.cpu.inst 37679.921619                       # average ReadReq miss latency
system.l2cache.ReadReq_avg_miss_latency::.cpu.data 44146.340442                       # average ReadReq miss latency
system.l2cache.ReadReq_avg_miss_latency::total 39538.023523                       # average ReadReq miss latency
system.l2cache.ReadReq_mshr_misses::.cpu.inst        59198                       # number of ReadReq MSHR misses
system.l2cache.ReadReq_mshr_misses::.cpu.data        23869                       # number of ReadReq MSHR misses
system.l2cache.ReadReq_mshr_misses::total        83067                       # number of ReadReq MSHR misses
system.l2cache.ReadReq_mshr_miss_latency::.cpu.inst   2112180000                       # number of ReadReq MSHR miss cycles
system.l2cache.ReadReq_mshr_miss_latency::.cpu.data   1005991000                       # number of ReadReq MSHR miss cycles
system.l2cache.ReadReq_mshr_miss_latency::total   3118171000                       # number of ReadReq MSHR miss cycles
system.l2cache.ReadReq_mshr_miss_rate::.cpu.inst     0.766218                       # mshr miss rate for ReadReq accesses
system.l2cache.ReadReq_mshr_miss_rate::.cpu.data     0.628413                       # mshr miss rate for ReadReq accesses
system.l2cache.ReadReq_mshr_miss_rate::total     0.720799                       # mshr miss rate for ReadReq accesses
system.l2cache.ReadReq_avg_mshr_miss_latency::.cpu.inst 35679.921619                       # average ReadReq mshr miss latency
system.l2cache.ReadReq_avg_mshr_miss_latency::.cpu.data 42146.340442                       # average ReadReq mshr miss latency
system.l2cache.ReadReq_avg_mshr_miss_latency::total 37538.023523                       # average ReadReq mshr miss latency
system.l2cache.WritebackDirty_hits::.writebacks        18753                       # number of WritebackDirty hits
system.l2cache.WritebackDirty_hits::total        18753                       # number of WritebackDirty hits
system.l2cache.WritebackDirty_accesses::.writebacks        18753                       # number of WritebackDirty accesses(hits+misses)
system.l2cache.WritebackDirty_accesses::total        18753                       # number of WritebackDirty accesses(hits+misses)
system.l2cache.power_state.pwrStateResidencyTicks::UNDEFINED  10472520000                       # Cumulative time (in ticks) in various power states
system.l2cache.tags.tagsinuse              509.697934                       # Cycle average of tags in use
system.l2cache.tags.total_refs                 133996                       # Total number of references to valid blocks.
system.l2cache.tags.sampled_refs                95624                       # Sample count of references to valid blocks.
system.l2cache.tags.avg_refs                 1.401280                       # Average number of references to valid blocks.
system.l2cache.tags.warmup_cycle                78000                       # Cycle when the warmup percentage was hit.
system.l2cache.tags.occ_blocks::.writebacks    77.888278                       # Average occupied blocks per requestor
system.l2cache.tags.occ_blocks::.cpu.inst   284.950861                       # Average occupied blocks per requestor
system.l2cache.tags.occ_blocks::.cpu.data   146.858795                       # Average occupied blocks per requestor
system.l2cache.tags.occ_percent::.writebacks     0.152126                       # Average percentage of cache occupancy
system.l2cache.tags.occ_percent::.cpu.inst     0.556545                       # Average percentage of cache occupancy
system.l2cache.tags.occ_percent::.cpu.data     0.286834                       # Average percentage of cache occupancy
system.l2cache.tags.occ_percent::total       0.995504                       # Average percentage of cache occupancy
system.l2cache.tags.occ_task_id_blocks::1024          512                       # Occupied blocks per task id
system.l2cache.tags.age_task_id_blocks_1024::0           68                       # Occupied blocks per task id
system.l2cache.tags.age_task_id_blocks_1024::1          274                       # Occupied blocks per task id
system.l2cache.tags.age_task_id_blocks_1024::2          167                       # Occupied blocks per task id
system.l2cache.tags.age_task_id_blocks_1024::3            3                       # Occupied blocks per task id
system.l2cache.tags.occ_task_id_percent::1024            1                       # Percentage of cache occupancy per task id
system.l2cache.tags.tag_accesses               229620                       # Number of tag accesses
system.l2cache.tags.data_accesses              229620                       # Number of data accesses
system.l2cache.tags.power_state.pwrStateResidencyTicks::UNDEFINED  10472520000                       # Cumulative time (in ticks) in various power states
system.l2bar.trans_dist::ReadReq               115243                       # Transaction distribution
system.l2bar.trans_dist::ReadResp              115243                       # Transaction distribution
system.l2bar.trans_dist::WritebackDirty         18753                       # Transaction distribution
system.l2bar.pkt_count_system.dcache.mem_side::system.l2cache.cpu_side        94719                       # Packet count per connected master and slave (bytes)
system.l2bar.pkt_count_system.icache.mem_side::system.l2cache.cpu_side       154520                       # Packet count per connected master and slave (bytes)
system.l2bar.pkt_count::total                  249239                       # Packet count per connected master and slave (bytes)
system.l2bar.pkt_size_system.dcache.mem_side::system.l2cache.cpu_side      3631104                       # Cumulative packet size per connected master and slave (bytes)
system.l2bar.pkt_size_system.icache.mem_side::system.l2cache.cpu_side      4944640                       # Cumulative packet size per connected master and slave (bytes)
system.l2bar.pkt_size::total                  8575744                       # Cumulative packet size per connected master and slave (bytes)
system.l2bar.respLayer1.occupancy           386300000                       # Layer occupancy (ticks)
system.l2bar.respLayer1.utilization               3.7                       # Layer utilization (%)
system.l2bar.reqLayer0.occupancy            209008000                       # Layer occupancy (ticks)
system.l2bar.reqLayer0.utilization                2.0                       # Layer utilization (%)
system.l2bar.respLayer0.occupancy           189915000                       # Layer occupancy (ticks)
system.l2bar.respLayer0.utilization               1.8                       # Layer utilization (%)
system.l2bar.power_state.pwrStateResidencyTicks::UNDEFINED  10472520000                       # Cumulative time (in ticks) in various power states
system.cpu.dtb.walker.power_state.pwrStateResidencyTicks::UNDEFINED  10472520000                       # Cumulative time (in ticks) in various power states
system.cpu.interrupts.clk_domain.clock          16000                       # Clock period in ticks
system.cpu.itb.walker.power_state.pwrStateResidencyTicks::UNDEFINED  10472520000                       # Cumulative time (in ticks) in various power states
system.cpu.power_state.numTransitions               1                       # Number of power state transitions
system.cpu.power_state.pwrStateResidencyTicks::ON  10472520000                       # Cumulative time (in ticks) in various power states

---------- End Simulation Statistics   ----------
