
---------- Begin Simulation Statistics ----------
final_tick                                 3590244000                       # Number of ticks from beginning of simulation (restored from checkpoints and never reset)
host_inst_rate                                 299989                       # Simulator instruction rate (inst/s)
host_mem_usage                                1279456                       # Number of bytes of host memory used
host_op_rate                                   528876                       # Simulator op (including micro ops) rate (op/s)
host_seconds                                     3.33                       # Real time elapsed on the host
host_tick_rate                             1076954247                       # Simulator tick rate (ticks/s)
sim_freq                                 1000000000000                       # Frequency of simulated ticks
sim_insts                                     1000006                       # Number of instructions simulated
sim_ops                                       1763092                       # Number of ops (including micro ops) simulated
sim_seconds                                  0.003590                       # Number of seconds simulated
sim_ticks                                  3590244000                       # Number of ticks simulated
system.cpu.Branches                            268145                       # Number of branches fetched
system.cpu.committedInsts                     1000006                       # Number of instructions committed
system.cpu.committedOps                       1763092                       # Number of ops (including micro ops) committed
system.cpu.dtb.rdAccesses                       28133                       # TLB accesses on read requests
system.cpu.dtb.rdMisses                            17                       # TLB misses on read requests
system.cpu.dtb.wrAccesses                      133618                       # TLB accesses on write requests
system.cpu.dtb.wrMisses                           233                       # TLB misses on write requests
system.cpu.idle_fraction                            0                       # Percentage of idle cycles
system.cpu.itb.rdAccesses                           0                       # TLB accesses on read requests
system.cpu.itb.rdMisses                             0                       # TLB misses on read requests
system.cpu.itb.wrAccesses                     1323480                       # TLB accesses on write requests
system.cpu.itb.wrMisses                            55                       # TLB misses on write requests
system.cpu.not_idle_fraction                        1                       # Percentage of non-idle cycles
system.cpu.numCycles                          3590233                       # number of cpu cycles simulated
system.cpu.numWorkItemsCompleted                    0                       # number of work items this cpu completed
system.cpu.numWorkItemsStarted                      0                       # number of work items this cpu started
system.cpu.num_busy_cycles                    3590233                       # Number of busy cycles
system.cpu.num_cc_register_reads              1413563                       # number of times the CC registers were read
system.cpu.num_cc_register_writes              720016                       # number of times the CC registers were written
system.cpu.num_conditional_control_insts       230509                       # number of instructions that are conditional controls
system.cpu.num_fp_alu_accesses                  49627                       # Number of float alu accesses
system.cpu.num_fp_insts                         49627                       # number of float instructions
system.cpu.num_fp_register_reads                49964                       # number of times the floating registers were read
system.cpu.num_fp_register_writes                 535                       # number of times the floating registers were written
system.cpu.num_func_calls                        3936                       # number of times a function call or return occured
system.cpu.num_idle_cycles                          0                       # Number of idle cycles
system.cpu.num_int_alu_accesses               1725269                       # Number of integer alu accesses
system.cpu.num_int_insts                      1725269                       # number of integer instructions
system.cpu.num_int_register_reads             2893107                       # number of times the integer registers were read
system.cpu.num_int_register_writes            1324906                       # number of times the integer registers were written
system.cpu.num_load_insts                       28126                       # Number of load instructions
system.cpu.num_mem_refs                        161742                       # number of memory refs
system.cpu.num_store_insts                     133616                       # Number of store instructions
system.cpu.num_vec_alu_accesses                     0                       # Number of vector alu accesses
system.cpu.num_vec_insts                            0                       # number of vector instructions
system.cpu.num_vec_register_reads                   0                       # number of times the vector registers were read
system.cpu.num_vec_register_writes                  0                       # number of times the vector registers were written
system.cpu.op_class::No_OpClass                 33401      1.89%      1.89% # Class of executed instruction
system.cpu.op_class::IntAlu                   1566505     88.84%     90.74% # Class of executed instruction
system.cpu.op_class::IntMult                     1084      0.06%     90.80% # Class of executed instruction
system.cpu.op_class::IntDiv                        21      0.00%     90.80% # Class of executed instruction
system.cpu.op_class::FloatAdd                      11      0.00%     90.80% # Class of executed instruction
system.cpu.op_class::FloatCmp                       0      0.00%     90.80% # Class of executed instruction
system.cpu.op_class::FloatCvt                       0      0.00%     90.80% # Class of executed instruction
system.cpu.op_class::FloatMult                      0      0.00%     90.80% # Class of executed instruction
system.cpu.op_class::FloatMultAcc                   0      0.00%     90.80% # Class of executed instruction
system.cpu.op_class::FloatDiv                       0      0.00%     90.80% # Class of executed instruction
system.cpu.op_class::FloatMisc                      0      0.00%     90.80% # Class of executed instruction
system.cpu.op_class::FloatSqrt                      0      0.00%     90.80% # Class of executed instruction
system.cpu.op_class::SimdAdd                        0      0.00%     90.80% # Class of executed instruction
system.cpu.op_class::SimdAddAcc                     0      0.00%     90.80% # Class of executed instruction
system.cpu.op_class::SimdAlu                      164      0.01%     90.81% # Class of executed instruction
system.cpu.op_class::SimdCmp                       14      0.00%     90.81% # Class of executed instruction
system.cpu.op_class::SimdCvt                       96      0.01%     90.82% # Class of executed instruction
system.cpu.op_class::SimdMisc                     155      0.01%     90.83% # Class of executed instruction
system.cpu.op_class::SimdMult                       0      0.00%     90.83% # Class of executed instruction
system.cpu.op_class::SimdMultAcc                    0      0.00%     90.83% # Class of executed instruction
system.cpu.op_class::SimdShift                      0      0.00%     90.83% # Class of executed instruction
system.cpu.op_class::SimdShiftAcc                   0      0.00%     90.83% # Class of executed instruction
system.cpu.op_class::SimdDiv                        0      0.00%     90.83% # Class of executed instruction
system.cpu.op_class::SimdSqrt                       0      0.00%     90.83% # Class of executed instruction
system.cpu.op_class::SimdFloatAdd                   0      0.00%     90.83% # Class of executed instruction
system.cpu.op_class::SimdFloatAlu                   0      0.00%     90.83% # Class of executed instruction
system.cpu.op_class::SimdFloatCmp                   0      0.00%     90.83% # Class of executed instruction
system.cpu.op_class::SimdFloatCvt                   0      0.00%     90.83% # Class of executed instruction
system.cpu.op_class::SimdFloatDiv                   0      0.00%     90.83% # Class of executed instruction
system.cpu.op_class::SimdFloatMisc                  0      0.00%     90.83% # Class of executed instruction
system.cpu.op_class::SimdFloatMult                  0      0.00%     90.83% # Class of executed instruction
system.cpu.op_class::SimdFloatMultAcc               0      0.00%     90.83% # Class of executed instruction
system.cpu.op_class::SimdFloatSqrt                  0      0.00%     90.83% # Class of executed instruction
system.cpu.op_class::SimdReduceAdd                  0      0.00%     90.83% # Class of executed instruction
system.cpu.op_class::SimdReduceAlu                  0      0.00%     90.83% # Class of executed instruction
system.cpu.op_class::SimdReduceCmp                  0      0.00%     90.83% # Class of executed instruction
system.cpu.op_class::SimdFloatReduceAdd             0      0.00%     90.83% # Class of executed instruction
system.cpu.op_class::SimdFloatReduceCmp             0      0.00%     90.83% # Class of executed instruction
system.cpu.op_class::SimdAes                        0      0.00%     90.83% # Class of executed instruction
system.cpu.op_class::SimdAesMix                     0      0.00%     90.83% # Class of executed instruction
system.cpu.op_class::SimdSha1Hash                   0      0.00%     90.83% # Class of executed instruction
system.cpu.op_class::SimdSha1Hash2                  0      0.00%     90.83% # Class of executed instruction
system.cpu.op_class::SimdSha256Hash                 0      0.00%     90.83% # Class of executed instruction
system.cpu.op_class::SimdSha256Hash2                0      0.00%     90.83% # Class of executed instruction
system.cpu.op_class::SimdShaSigma2                  0      0.00%     90.83% # Class of executed instruction
system.cpu.op_class::SimdShaSigma3                  0      0.00%     90.83% # Class of executed instruction
system.cpu.op_class::SimdPredAlu                    0      0.00%     90.83% # Class of executed instruction
system.cpu.op_class::MemRead                    27988      1.59%     92.41% # Class of executed instruction
system.cpu.op_class::MemWrite                   84602      4.80%     97.21% # Class of executed instruction
system.cpu.op_class::FloatMemRead                 138      0.01%     97.22% # Class of executed instruction
system.cpu.op_class::FloatMemWrite              49014      2.78%    100.00% # Class of executed instruction
system.cpu.op_class::IprAccess                      0      0.00%    100.00% # Class of executed instruction
system.cpu.op_class::InstPrefetch                   0      0.00%    100.00% # Class of executed instruction
system.cpu.op_class::total                    1763193                       # Class of executed instruction
system.cpu.workload.numSyscalls                    11                       # Number of system calls
system.dynamic_cache.flushTicks                     0                       # Ticks taken to flush
system.dynamic_cache.numFlushes                     0                       # Number of Flushes Taken
system.cache_small.blocked_cycles::no_mshrs            0                       # number of cycles access was blocked
system.cache_small.blocked_cycles::no_targets            0                       # number of cycles access was blocked
system.cache_small.blocked::no_mshrs                0                       # number of cycles access was blocked
system.cache_small.blocked::no_targets              0                       # number of cycles access was blocked
system.cache_small.avg_blocked_cycles::no_mshrs          nan                       # average number of cycles each access was blocked
system.cache_small.avg_blocked_cycles::no_targets          nan                       # average number of cycles each access was blocked
system.cache_small.replacements                     0                       # number of replacements
system.cache_small.power_state.pwrStateResidencyTicks::UNDEFINED   3590244000                       # Cumulative time (in ticks) in various power states
system.cache_small.tags.tagsinuse                   0                       # Cycle average of tags in use
system.cache_small.tags.total_refs                  0                       # Total number of references to valid blocks.
system.cache_small.tags.sampled_refs                0                       # Sample count of references to valid blocks.
system.cache_small.tags.avg_refs                  nan                       # Average number of references to valid blocks.
system.cache_small.tags.warmup_cycle                0                       # Cycle when the warmup percentage was hit.
system.cache_small.tags.tag_accesses                0                       # Number of tag accesses
system.cache_small.tags.data_accesses               0                       # Number of data accesses
system.cache_small.tags.power_state.pwrStateResidencyTicks::UNDEFINED   3590244000                       # Cumulative time (in ticks) in various power states
system.icache.demand_hits::.cpu.inst          1322727                       # number of demand (read+write) hits
system.icache.demand_hits::total              1322727                       # number of demand (read+write) hits
system.icache.overall_hits::.cpu.inst         1322727                       # number of overall hits
system.icache.overall_hits::total             1322727                       # number of overall hits
system.icache.demand_misses::.cpu.inst            753                       # number of demand (read+write) misses
system.icache.demand_misses::total                753                       # number of demand (read+write) misses
system.icache.overall_misses::.cpu.inst           753                       # number of overall misses
system.icache.overall_misses::total               753                       # number of overall misses
system.icache.demand_miss_latency::.cpu.inst     53501000                       # number of demand (read+write) miss cycles
system.icache.demand_miss_latency::total     53501000                       # number of demand (read+write) miss cycles
system.icache.overall_miss_latency::.cpu.inst     53501000                       # number of overall miss cycles
system.icache.overall_miss_latency::total     53501000                       # number of overall miss cycles
system.icache.demand_accesses::.cpu.inst      1323480                       # number of demand (read+write) accesses
system.icache.demand_accesses::total          1323480                       # number of demand (read+write) accesses
system.icache.overall_accesses::.cpu.inst      1323480                       # number of overall (read+write) accesses
system.icache.overall_accesses::total         1323480                       # number of overall (read+write) accesses
system.icache.demand_miss_rate::.cpu.inst     0.000569                       # miss rate for demand accesses
system.icache.demand_miss_rate::total        0.000569                       # miss rate for demand accesses
system.icache.overall_miss_rate::.cpu.inst     0.000569                       # miss rate for overall accesses
system.icache.overall_miss_rate::total       0.000569                       # miss rate for overall accesses
system.icache.demand_avg_miss_latency::.cpu.inst 71050.464807                       # average overall miss latency
system.icache.demand_avg_miss_latency::total 71050.464807                       # average overall miss latency
system.icache.overall_avg_miss_latency::.cpu.inst 71050.464807                       # average overall miss latency
system.icache.overall_avg_miss_latency::total 71050.464807                       # average overall miss latency
system.icache.blocked_cycles::no_mshrs              0                       # number of cycles access was blocked
system.icache.blocked_cycles::no_targets            0                       # number of cycles access was blocked
system.icache.blocked::no_mshrs                     0                       # number of cycles access was blocked
system.icache.blocked::no_targets                   0                       # number of cycles access was blocked
system.icache.avg_blocked_cycles::no_mshrs          nan                       # average number of cycles each access was blocked
system.icache.avg_blocked_cycles::no_targets          nan                       # average number of cycles each access was blocked
system.icache.demand_mshr_misses::.cpu.inst          753                       # number of demand (read+write) MSHR misses
system.icache.demand_mshr_misses::total           753                       # number of demand (read+write) MSHR misses
system.icache.overall_mshr_misses::.cpu.inst          753                       # number of overall MSHR misses
system.icache.overall_mshr_misses::total          753                       # number of overall MSHR misses
system.icache.demand_mshr_miss_latency::.cpu.inst     51995000                       # number of demand (read+write) MSHR miss cycles
system.icache.demand_mshr_miss_latency::total     51995000                       # number of demand (read+write) MSHR miss cycles
system.icache.overall_mshr_miss_latency::.cpu.inst     51995000                       # number of overall MSHR miss cycles
system.icache.overall_mshr_miss_latency::total     51995000                       # number of overall MSHR miss cycles
system.icache.demand_mshr_miss_rate::.cpu.inst     0.000569                       # mshr miss rate for demand accesses
system.icache.demand_mshr_miss_rate::total     0.000569                       # mshr miss rate for demand accesses
system.icache.overall_mshr_miss_rate::.cpu.inst     0.000569                       # mshr miss rate for overall accesses
system.icache.overall_mshr_miss_rate::total     0.000569                       # mshr miss rate for overall accesses
system.icache.demand_avg_mshr_miss_latency::.cpu.inst 69050.464807                       # average overall mshr miss latency
system.icache.demand_avg_mshr_miss_latency::total 69050.464807                       # average overall mshr miss latency
system.icache.overall_avg_mshr_miss_latency::.cpu.inst 69050.464807                       # average overall mshr miss latency
system.icache.overall_avg_mshr_miss_latency::total 69050.464807                       # average overall mshr miss latency
system.icache.replacements                        513                       # number of replacements
system.icache.ReadReq_hits::.cpu.inst         1322727                       # number of ReadReq hits
system.icache.ReadReq_hits::total             1322727                       # number of ReadReq hits
system.icache.ReadReq_misses::.cpu.inst           753                       # number of ReadReq misses
system.icache.ReadReq_misses::total               753                       # number of ReadReq misses
system.icache.ReadReq_miss_latency::.cpu.inst     53501000                       # number of ReadReq miss cycles
system.icache.ReadReq_miss_latency::total     53501000                       # number of ReadReq miss cycles
system.icache.ReadReq_accesses::.cpu.inst      1323480                       # number of ReadReq accesses(hits+misses)
system.icache.ReadReq_accesses::total         1323480                       # number of ReadReq accesses(hits+misses)
system.icache.ReadReq_miss_rate::.cpu.inst     0.000569                       # miss rate for ReadReq accesses
system.icache.ReadReq_miss_rate::total       0.000569                       # miss rate for ReadReq accesses
system.icache.ReadReq_avg_miss_latency::.cpu.inst 71050.464807                       # average ReadReq miss latency
system.icache.ReadReq_avg_miss_latency::total 71050.464807                       # average ReadReq miss latency
system.icache.ReadReq_mshr_misses::.cpu.inst          753                       # number of ReadReq MSHR misses
system.icache.ReadReq_mshr_misses::total          753                       # number of ReadReq MSHR misses
system.icache.ReadReq_mshr_miss_latency::.cpu.inst     51995000                       # number of ReadReq MSHR miss cycles
system.icache.ReadReq_mshr_miss_latency::total     51995000                       # number of ReadReq MSHR miss cycles
system.icache.ReadReq_mshr_miss_rate::.cpu.inst     0.000569                       # mshr miss rate for ReadReq accesses
system.icache.ReadReq_mshr_miss_rate::total     0.000569                       # mshr miss rate for ReadReq accesses
system.icache.ReadReq_avg_mshr_miss_latency::.cpu.inst 69050.464807                       # average ReadReq mshr miss latency
system.icache.ReadReq_avg_mshr_miss_latency::total 69050.464807                       # average ReadReq mshr miss latency
system.icache.power_state.pwrStateResidencyTicks::UNDEFINED   3590244000                       # Cumulative time (in ticks) in various power states
system.icache.tags.tagsinuse               233.299612                       # Cycle average of tags in use
system.icache.tags.total_refs                  117158                       # Total number of references to valid blocks.
system.icache.tags.sampled_refs                   513                       # Sample count of references to valid blocks.
system.icache.tags.avg_refs                228.378168                       # Average number of references to valid blocks.
system.icache.tags.warmup_cycle                 80000                       # Cycle when the warmup percentage was hit.
system.icache.tags.occ_blocks::.cpu.inst   233.299612                       # Average occupied blocks per requestor
system.icache.tags.occ_percent::.cpu.inst     0.911327                       # Average percentage of cache occupancy
system.icache.tags.occ_percent::total        0.911327                       # Average percentage of cache occupancy
system.icache.tags.occ_task_id_blocks::1024          240                       # Occupied blocks per task id
system.icache.tags.age_task_id_blocks_1024::2           71                       # Occupied blocks per task id
system.icache.tags.age_task_id_blocks_1024::3          169                       # Occupied blocks per task id
system.icache.tags.occ_task_id_percent::1024     0.937500                       # Percentage of cache occupancy per task id
system.icache.tags.tag_accesses               1324233                       # Number of tag accesses
system.icache.tags.data_accesses              1324233                       # Number of data accesses
system.icache.tags.power_state.pwrStateResidencyTicks::UNDEFINED   3590244000                       # Cumulative time (in ticks) in various power states
system.membus.trans_dist::ReadReq                8637                       # Transaction distribution
system.membus.trans_dist::ReadResp               8637                       # Transaction distribution
system.membus.trans_dist::WritebackDirty         7231                       # Transaction distribution
system.membus.pkt_count_system.dynamic_cache.mem_side::system.mem_ctrl.port        24505                       # Packet count per connected master and slave (bytes)
system.membus.pkt_count_system.dynamic_cache.mem_side::total        24505                       # Packet count per connected master and slave (bytes)
system.membus.pkt_count::total                  24505                       # Packet count per connected master and slave (bytes)
system.membus.pkt_size_system.dynamic_cache.mem_side::system.mem_ctrl.port      1015552                       # Cumulative packet size per connected master and slave (bytes)
system.membus.pkt_size_system.dynamic_cache.mem_side::total      1015552                       # Cumulative packet size per connected master and slave (bytes)
system.membus.pkt_size::total                 1015552                       # Cumulative packet size per connected master and slave (bytes)
system.membus.reqLayer2.occupancy            44792000                       # Layer occupancy (ticks)
system.membus.reqLayer2.utilization               1.2                       # Layer utilization (%)
system.membus.respLayer0.occupancy           45610250                       # Layer occupancy (ticks)
system.membus.respLayer0.utilization              1.3                       # Layer utilization (%)
system.membus.power_state.pwrStateResidencyTicks::UNDEFINED   3590244000                       # Cumulative time (in ticks) in various power states
system.mem_ctrl.bytes_read::.cpu.inst           47424                       # Number of bytes read from this memory
system.mem_ctrl.bytes_read::.cpu.data          505344                       # Number of bytes read from this memory
system.mem_ctrl.bytes_read::total              552768                       # Number of bytes read from this memory
system.mem_ctrl.bytes_inst_read::.cpu.inst        47424                       # Number of instructions bytes read from this memory
system.mem_ctrl.bytes_inst_read::total          47424                       # Number of instructions bytes read from this memory
system.mem_ctrl.bytes_written::.writebacks       462784                       # Number of bytes written to this memory
system.mem_ctrl.bytes_written::total           462784                       # Number of bytes written to this memory
system.mem_ctrl.num_reads::.cpu.inst              741                       # Number of read requests responded to by this memory
system.mem_ctrl.num_reads::.cpu.data             7896                       # Number of read requests responded to by this memory
system.mem_ctrl.num_reads::total                 8637                       # Number of read requests responded to by this memory
system.mem_ctrl.num_writes::.writebacks          7231                       # Number of write requests responded to by this memory
system.mem_ctrl.num_writes::total                7231                       # Number of write requests responded to by this memory
system.mem_ctrl.bw_read::.cpu.inst           13209130                       # Total read bandwidth from this memory (bytes/s)
system.mem_ctrl.bw_read::.cpu.data          140754779                       # Total read bandwidth from this memory (bytes/s)
system.mem_ctrl.bw_read::total              153963909                       # Total read bandwidth from this memory (bytes/s)
system.mem_ctrl.bw_inst_read::.cpu.inst      13209130                       # Instruction read bandwidth from this memory (bytes/s)
system.mem_ctrl.bw_inst_read::total          13209130                       # Instruction read bandwidth from this memory (bytes/s)
system.mem_ctrl.bw_write::.writebacks       128900431                       # Write bandwidth from this memory (bytes/s)
system.mem_ctrl.bw_write::total             128900431                       # Write bandwidth from this memory (bytes/s)
system.mem_ctrl.bw_total::.writebacks       128900431                       # Total bandwidth to/from this memory (bytes/s)
system.mem_ctrl.bw_total::.cpu.inst          13209130                       # Total bandwidth to/from this memory (bytes/s)
system.mem_ctrl.bw_total::.cpu.data         140754779                       # Total bandwidth to/from this memory (bytes/s)
system.mem_ctrl.bw_total::total             282864340                       # Total bandwidth to/from this memory (bytes/s)
system.mem_ctrl.avgPriority_.writebacks::samples      7210.00                       # Average QoS priority value for accepted requests
system.mem_ctrl.avgPriority_.cpu.inst::samples       741.00                       # Average QoS priority value for accepted requests
system.mem_ctrl.avgPriority_.cpu.data::samples      7895.00                       # Average QoS priority value for accepted requests
system.mem_ctrl.priorityMinLatency       0.000000018750                       # per QoS priority minimum request to response latency (s)
system.mem_ctrl.priorityMaxLatency       0.001570342500                       # per QoS priority maximum request to response latency (s)
system.mem_ctrl.numReadWriteTurnArounds           442                       # Number of turnarounds from READ to WRITE
system.mem_ctrl.numWriteReadTurnArounds           442                       # Number of turnarounds from WRITE to READ
system.mem_ctrl.numStayReadState                25020                       # Number of times bus staying in READ state
system.mem_ctrl.numStayWriteState                6746                       # Number of times bus staying in WRITE state
system.mem_ctrl.readReqs                         8637                       # Number of read requests accepted
system.mem_ctrl.writeReqs                        7231                       # Number of write requests accepted
system.mem_ctrl.readBursts                       8637                       # Number of DRAM read bursts, including those serviced by the write queue
system.mem_ctrl.writeBursts                      7231                       # Number of DRAM write bursts, including those merged in the write queue
system.mem_ctrl.servicedByWrQ                       1                       # Number of DRAM read bursts serviced by the write queue
system.mem_ctrl.mergedWrBursts                     21                       # Number of DRAM write bursts merged with an existing one
system.mem_ctrl.neitherReadNorWriteReqs             0                       # Number of requests that are neither read nor write
system.mem_ctrl.perBankRdBursts::0                571                       # Per bank write bursts
system.mem_ctrl.perBankRdBursts::1                509                       # Per bank write bursts
system.mem_ctrl.perBankRdBursts::2                510                       # Per bank write bursts
system.mem_ctrl.perBankRdBursts::3                409                       # Per bank write bursts
system.mem_ctrl.perBankRdBursts::4                375                       # Per bank write bursts
system.mem_ctrl.perBankRdBursts::5                481                       # Per bank write bursts
system.mem_ctrl.perBankRdBursts::6                639                       # Per bank write bursts
system.mem_ctrl.perBankRdBursts::7                520                       # Per bank write bursts
system.mem_ctrl.perBankRdBursts::8                651                       # Per bank write bursts
system.mem_ctrl.perBankRdBursts::9                554                       # Per bank write bursts
system.mem_ctrl.perBankRdBursts::10               572                       # Per bank write bursts
system.mem_ctrl.perBankRdBursts::11               538                       # Per bank write bursts
system.mem_ctrl.perBankRdBursts::12               524                       # Per bank write bursts
system.mem_ctrl.perBankRdBursts::13               533                       # Per bank write bursts
system.mem_ctrl.perBankRdBursts::14               572                       # Per bank write bursts
system.mem_ctrl.perBankRdBursts::15               678                       # Per bank write bursts
system.mem_ctrl.perBankWrBursts::0                363                       # Per bank write bursts
system.mem_ctrl.perBankWrBursts::1                260                       # Per bank write bursts
system.mem_ctrl.perBankWrBursts::2                291                       # Per bank write bursts
system.mem_ctrl.perBankWrBursts::3                270                       # Per bank write bursts
system.mem_ctrl.perBankWrBursts::4                325                       # Per bank write bursts
system.mem_ctrl.perBankWrBursts::5                460                       # Per bank write bursts
system.mem_ctrl.perBankWrBursts::6                517                       # Per bank write bursts
system.mem_ctrl.perBankWrBursts::7                512                       # Per bank write bursts
system.mem_ctrl.perBankWrBursts::8                513                       # Per bank write bursts
system.mem_ctrl.perBankWrBursts::9                517                       # Per bank write bursts
system.mem_ctrl.perBankWrBursts::10               512                       # Per bank write bursts
system.mem_ctrl.perBankWrBursts::11               512                       # Per bank write bursts
system.mem_ctrl.perBankWrBursts::12               512                       # Per bank write bursts
system.mem_ctrl.perBankWrBursts::13               522                       # Per bank write bursts
system.mem_ctrl.perBankWrBursts::14               514                       # Per bank write bursts
system.mem_ctrl.perBankWrBursts::15               584                       # Per bank write bursts
system.mem_ctrl.avgRdQLen                        1.00                       # Average read queue length when enqueuing
system.mem_ctrl.avgWrQLen                       23.33                       # Average write queue length when enqueuing
system.mem_ctrl.totQLat                      73200750                       # Total ticks spent queuing
system.mem_ctrl.totBusLat                    43180000                       # Total ticks spent in databus transfers
system.mem_ctrl.totMemAccLat                235125750                       # Total ticks spent from burst creation until serviced by the DRAM
system.mem_ctrl.avgQLat                       8476.23                       # Average queueing delay per DRAM burst
system.mem_ctrl.avgBusLat                     5000.00                       # Average bus latency per DRAM burst
system.mem_ctrl.avgMemAccLat                 27226.23                       # Average memory access latency per DRAM burst
system.mem_ctrl.numRdRetry                          0                       # Number of times read queue was full causing retry
system.mem_ctrl.numWrRetry                          0                       # Number of times write queue was full causing retry
system.mem_ctrl.readRowHits                      7555                       # Number of row buffer hits during reads
system.mem_ctrl.writeRowHits                     6601                       # Number of row buffer hits during writes
system.mem_ctrl.readRowHitRate                  87.48                       # Row buffer hit rate for reads
system.mem_ctrl.writeRowHitRate                 91.55                       # Row buffer hit rate for writes
system.mem_ctrl.readPktSize::0                      0                       # Read request sizes (log2)
system.mem_ctrl.readPktSize::1                      0                       # Read request sizes (log2)
system.mem_ctrl.readPktSize::2                      0                       # Read request sizes (log2)
system.mem_ctrl.readPktSize::3                      0                       # Read request sizes (log2)
system.mem_ctrl.readPktSize::4                      0                       # Read request sizes (log2)
system.mem_ctrl.readPktSize::5                      0                       # Read request sizes (log2)
system.mem_ctrl.readPktSize::6                   8637                       # Read request sizes (log2)
system.mem_ctrl.writePktSize::0                     0                       # Write request sizes (log2)
system.mem_ctrl.writePktSize::1                     0                       # Write request sizes (log2)
system.mem_ctrl.writePktSize::2                     0                       # Write request sizes (log2)
system.mem_ctrl.writePktSize::3                     0                       # Write request sizes (log2)
system.mem_ctrl.writePktSize::4                     0                       # Write request sizes (log2)
system.mem_ctrl.writePktSize::5                     0                       # Write request sizes (log2)
system.mem_ctrl.writePktSize::6                  7231                       # Write request sizes (log2)
system.mem_ctrl.rdQLenPdf::0                     8636                       # What read queue length does an incoming req see
system.mem_ctrl.rdQLenPdf::1                        0                       # What read queue length does an incoming req see
system.mem_ctrl.rdQLenPdf::2                        0                       # What read queue length does an incoming req see
system.mem_ctrl.rdQLenPdf::3                        0                       # What read queue length does an incoming req see
system.mem_ctrl.rdQLenPdf::4                        0                       # What read queue length does an incoming req see
system.mem_ctrl.rdQLenPdf::5                        0                       # What read queue length does an incoming req see
system.mem_ctrl.rdQLenPdf::6                        0                       # What read queue length does an incoming req see
system.mem_ctrl.rdQLenPdf::7                        0                       # What read queue length does an incoming req see
system.mem_ctrl.rdQLenPdf::8                        0                       # What read queue length does an incoming req see
system.mem_ctrl.rdQLenPdf::9                        0                       # What read queue length does an incoming req see
system.mem_ctrl.rdQLenPdf::10                       0                       # What read queue length does an incoming req see
system.mem_ctrl.rdQLenPdf::11                       0                       # What read queue length does an incoming req see
system.mem_ctrl.rdQLenPdf::12                       0                       # What read queue length does an incoming req see
system.mem_ctrl.rdQLenPdf::13                       0                       # What read queue length does an incoming req see
system.mem_ctrl.rdQLenPdf::14                       0                       # What read queue length does an incoming req see
system.mem_ctrl.rdQLenPdf::15                       0                       # What read queue length does an incoming req see
system.mem_ctrl.rdQLenPdf::16                       0                       # What read queue length does an incoming req see
system.mem_ctrl.rdQLenPdf::17                       0                       # What read queue length does an incoming req see
system.mem_ctrl.rdQLenPdf::18                       0                       # What read queue length does an incoming req see
system.mem_ctrl.rdQLenPdf::19                       0                       # What read queue length does an incoming req see
system.mem_ctrl.rdQLenPdf::20                       0                       # What read queue length does an incoming req see
system.mem_ctrl.rdQLenPdf::21                       0                       # What read queue length does an incoming req see
system.mem_ctrl.rdQLenPdf::22                       0                       # What read queue length does an incoming req see
system.mem_ctrl.rdQLenPdf::23                       0                       # What read queue length does an incoming req see
system.mem_ctrl.rdQLenPdf::24                       0                       # What read queue length does an incoming req see
system.mem_ctrl.rdQLenPdf::25                       0                       # What read queue length does an incoming req see
system.mem_ctrl.rdQLenPdf::26                       0                       # What read queue length does an incoming req see
system.mem_ctrl.rdQLenPdf::27                       0                       # What read queue length does an incoming req see
system.mem_ctrl.rdQLenPdf::28                       0                       # What read queue length does an incoming req see
system.mem_ctrl.rdQLenPdf::29                       0                       # What read queue length does an incoming req see
system.mem_ctrl.rdQLenPdf::30                       0                       # What read queue length does an incoming req see
system.mem_ctrl.rdQLenPdf::31                       0                       # What read queue length does an incoming req see
system.mem_ctrl.wrQLenPdf::0                        1                       # What write queue length does an incoming req see
system.mem_ctrl.wrQLenPdf::1                        1                       # What write queue length does an incoming req see
system.mem_ctrl.wrQLenPdf::2                        1                       # What write queue length does an incoming req see
system.mem_ctrl.wrQLenPdf::3                        1                       # What write queue length does an incoming req see
system.mem_ctrl.wrQLenPdf::4                        1                       # What write queue length does an incoming req see
system.mem_ctrl.wrQLenPdf::5                        1                       # What write queue length does an incoming req see
system.mem_ctrl.wrQLenPdf::6                        1                       # What write queue length does an incoming req see
system.mem_ctrl.wrQLenPdf::7                        1                       # What write queue length does an incoming req see
system.mem_ctrl.wrQLenPdf::8                        1                       # What write queue length does an incoming req see
system.mem_ctrl.wrQLenPdf::9                        1                       # What write queue length does an incoming req see
system.mem_ctrl.wrQLenPdf::10                       1                       # What write queue length does an incoming req see
system.mem_ctrl.wrQLenPdf::11                       1                       # What write queue length does an incoming req see
system.mem_ctrl.wrQLenPdf::12                       1                       # What write queue length does an incoming req see
system.mem_ctrl.wrQLenPdf::13                       1                       # What write queue length does an incoming req see
system.mem_ctrl.wrQLenPdf::14                       1                       # What write queue length does an incoming req see
system.mem_ctrl.wrQLenPdf::15                      50                       # What write queue length does an incoming req see
system.mem_ctrl.wrQLenPdf::16                      59                       # What write queue length does an incoming req see
system.mem_ctrl.wrQLenPdf::17                     440                       # What write queue length does an incoming req see
system.mem_ctrl.wrQLenPdf::18                     444                       # What write queue length does an incoming req see
system.mem_ctrl.wrQLenPdf::19                     444                       # What write queue length does an incoming req see
system.mem_ctrl.wrQLenPdf::20                     443                       # What write queue length does an incoming req see
system.mem_ctrl.wrQLenPdf::21                     443                       # What write queue length does an incoming req see
system.mem_ctrl.wrQLenPdf::22                     443                       # What write queue length does an incoming req see
system.mem_ctrl.wrQLenPdf::23                     443                       # What write queue length does an incoming req see
system.mem_ctrl.wrQLenPdf::24                     446                       # What write queue length does an incoming req see
system.mem_ctrl.wrQLenPdf::25                     444                       # What write queue length does an incoming req see
system.mem_ctrl.wrQLenPdf::26                     442                       # What write queue length does an incoming req see
system.mem_ctrl.wrQLenPdf::27                     444                       # What write queue length does an incoming req see
system.mem_ctrl.wrQLenPdf::28                     442                       # What write queue length does an incoming req see
system.mem_ctrl.wrQLenPdf::29                     442                       # What write queue length does an incoming req see
system.mem_ctrl.wrQLenPdf::30                     442                       # What write queue length does an incoming req see
system.mem_ctrl.wrQLenPdf::31                     442                       # What write queue length does an incoming req see
system.mem_ctrl.wrQLenPdf::32                     442                       # What write queue length does an incoming req see
system.mem_ctrl.wrQLenPdf::33                       0                       # What write queue length does an incoming req see
system.mem_ctrl.wrQLenPdf::34                       0                       # What write queue length does an incoming req see
system.mem_ctrl.wrQLenPdf::35                       0                       # What write queue length does an incoming req see
system.mem_ctrl.wrQLenPdf::36                       0                       # What write queue length does an incoming req see
system.mem_ctrl.wrQLenPdf::37                       0                       # What write queue length does an incoming req see
system.mem_ctrl.wrQLenPdf::38                       0                       # What write queue length does an incoming req see
system.mem_ctrl.wrQLenPdf::39                       0                       # What write queue length does an incoming req see
system.mem_ctrl.wrQLenPdf::40                       0                       # What write queue length does an incoming req see
system.mem_ctrl.wrQLenPdf::41                       0                       # What write queue length does an incoming req see
system.mem_ctrl.wrQLenPdf::42                       0                       # What write queue length does an incoming req see
system.mem_ctrl.wrQLenPdf::43                       0                       # What write queue length does an incoming req see
system.mem_ctrl.wrQLenPdf::44                       0                       # What write queue length does an incoming req see
system.mem_ctrl.wrQLenPdf::45                       0                       # What write queue length does an incoming req see
system.mem_ctrl.wrQLenPdf::46                       0                       # What write queue length does an incoming req see
system.mem_ctrl.wrQLenPdf::47                       0                       # What write queue length does an incoming req see
system.mem_ctrl.wrQLenPdf::48                       0                       # What write queue length does an incoming req see
system.mem_ctrl.wrQLenPdf::49                       0                       # What write queue length does an incoming req see
system.mem_ctrl.wrQLenPdf::50                       0                       # What write queue length does an incoming req see
system.mem_ctrl.wrQLenPdf::51                       0                       # What write queue length does an incoming req see
system.mem_ctrl.wrQLenPdf::52                       0                       # What write queue length does an incoming req see
system.mem_ctrl.wrQLenPdf::53                       0                       # What write queue length does an incoming req see
system.mem_ctrl.wrQLenPdf::54                       0                       # What write queue length does an incoming req see
system.mem_ctrl.wrQLenPdf::55                       0                       # What write queue length does an incoming req see
system.mem_ctrl.wrQLenPdf::56                       0                       # What write queue length does an incoming req see
system.mem_ctrl.wrQLenPdf::57                       0                       # What write queue length does an incoming req see
system.mem_ctrl.wrQLenPdf::58                       0                       # What write queue length does an incoming req see
system.mem_ctrl.wrQLenPdf::59                       0                       # What write queue length does an incoming req see
system.mem_ctrl.wrQLenPdf::60                       0                       # What write queue length does an incoming req see
system.mem_ctrl.wrQLenPdf::61                       0                       # What write queue length does an incoming req see
system.mem_ctrl.wrQLenPdf::62                       0                       # What write queue length does an incoming req see
system.mem_ctrl.wrQLenPdf::63                       0                       # What write queue length does an incoming req see
system.mem_ctrl.bytesPerActivate::samples         1663                       # Bytes accessed per row activation
system.mem_ctrl.bytesPerActivate::mean     608.634997                       # Bytes accessed per row activation
system.mem_ctrl.bytesPerActivate::gmean    431.907890                       # Bytes accessed per row activation
system.mem_ctrl.bytesPerActivate::stdev    398.115490                       # Bytes accessed per row activation
system.mem_ctrl.bytesPerActivate::0-127           129      7.76%      7.76% # Bytes accessed per row activation
system.mem_ctrl.bytesPerActivate::128-255          325     19.54%     27.30% # Bytes accessed per row activation
system.mem_ctrl.bytesPerActivate::256-383          248     14.91%     42.21% # Bytes accessed per row activation
system.mem_ctrl.bytesPerActivate::384-511           66      3.97%     46.18% # Bytes accessed per row activation
system.mem_ctrl.bytesPerActivate::512-639           49      2.95%     49.13% # Bytes accessed per row activation
system.mem_ctrl.bytesPerActivate::640-767           53      3.19%     52.32% # Bytes accessed per row activation
system.mem_ctrl.bytesPerActivate::768-895           37      2.22%     54.54% # Bytes accessed per row activation
system.mem_ctrl.bytesPerActivate::896-1023           56      3.37%     57.91% # Bytes accessed per row activation
system.mem_ctrl.bytesPerActivate::1024-1151          700     42.09%    100.00% # Bytes accessed per row activation
system.mem_ctrl.bytesPerActivate::total          1663                       # Bytes accessed per row activation
system.mem_ctrl.rdPerTurnAround::samples          442                       # Reads before turning the bus around for writes
system.mem_ctrl.rdPerTurnAround::mean       19.518100                       # Reads before turning the bus around for writes
system.mem_ctrl.rdPerTurnAround::gmean      16.543382                       # Reads before turning the bus around for writes
system.mem_ctrl.rdPerTurnAround::stdev      45.777445                       # Reads before turning the bus around for writes
system.mem_ctrl.rdPerTurnAround::0-31             431     97.51%     97.51% # Reads before turning the bus around for writes
system.mem_ctrl.rdPerTurnAround::32-63              6      1.36%     98.87% # Reads before turning the bus around for writes
system.mem_ctrl.rdPerTurnAround::64-95              1      0.23%     99.10% # Reads before turning the bus around for writes
system.mem_ctrl.rdPerTurnAround::96-127             1      0.23%     99.32% # Reads before turning the bus around for writes
system.mem_ctrl.rdPerTurnAround::128-159            1      0.23%     99.55% # Reads before turning the bus around for writes
system.mem_ctrl.rdPerTurnAround::160-191            1      0.23%     99.77% # Reads before turning the bus around for writes
system.mem_ctrl.rdPerTurnAround::928-959            1      0.23%    100.00% # Reads before turning the bus around for writes
system.mem_ctrl.rdPerTurnAround::total            442                       # Reads before turning the bus around for writes
system.mem_ctrl.wrPerTurnAround::samples          442                       # Writes before turning the bus around for reads
system.mem_ctrl.wrPerTurnAround::mean       16.253394                       # Writes before turning the bus around for reads
system.mem_ctrl.wrPerTurnAround::gmean      16.241191                       # Writes before turning the bus around for reads
system.mem_ctrl.wrPerTurnAround::stdev       0.648773                       # Writes before turning the bus around for reads
system.mem_ctrl.wrPerTurnAround::16               381     86.20%     86.20% # Writes before turning the bus around for reads
system.mem_ctrl.wrPerTurnAround::17                10      2.26%     88.46% # Writes before turning the bus around for reads
system.mem_ctrl.wrPerTurnAround::18                51     11.54%    100.00% # Writes before turning the bus around for reads
system.mem_ctrl.wrPerTurnAround::total            442                       # Writes before turning the bus around for reads
system.mem_ctrl.bytesReadDRAM                  552704                       # Total number of bytes read from DRAM
system.mem_ctrl.bytesReadWrQ                       64                       # Total number of bytes read from write queue
system.mem_ctrl.bytesWritten                   459776                       # Total number of bytes written to DRAM
system.mem_ctrl.bytesReadSys                   552768                       # Total read bytes from the system interface side
system.mem_ctrl.bytesWrittenSys                462784                       # Total written bytes from the system interface side
system.mem_ctrl.avgRdBW                        153.95                       # Average DRAM read bandwidth in MiByte/s
system.mem_ctrl.avgWrBW                        128.06                       # Average achieved write bandwidth in MiByte/s
system.mem_ctrl.avgRdBWSys                     153.96                       # Average system read bandwidth in MiByte/s
system.mem_ctrl.avgWrBWSys                     128.90                       # Average system write bandwidth in MiByte/s
system.mem_ctrl.peakBW                       12800.00                       # Theoretical peak bandwidth in MiByte/s
system.mem_ctrl.busUtil                          2.20                       # Data bus utilization in percentage
system.mem_ctrl.busUtilRead                      1.20                       # Data bus utilization in percentage for reads
system.mem_ctrl.busUtilWrite                     1.00                       # Data bus utilization in percentage for writes
system.mem_ctrl.totGap                     3590184000                       # Total gap between requests
system.mem_ctrl.avgGap                      226253.09                       # Average gap between requests
system.mem_ctrl.masterReadBytes::.cpu.inst        47424                       # Per-master bytes read from memory
system.mem_ctrl.masterReadBytes::.cpu.data       505280                       # Per-master bytes read from memory
system.mem_ctrl.masterWriteBytes::.writebacks       459776                       # Per-master bytes write to memory
system.mem_ctrl.masterReadRate::.cpu.inst 13209130.075838856399                       # Per-master bytes read from memory rate (Bytes/sec)
system.mem_ctrl.masterReadRate::.cpu.data 140736952.697365432978                       # Per-master bytes read from memory rate (Bytes/sec)
system.mem_ctrl.masterWriteRate::.writebacks 128062605.215690076351                       # Per-master bytes write to memory rate (Bytes/sec)
system.mem_ctrl.masterReadAccesses::.cpu.inst          741                       # Per-master read serviced memory accesses
system.mem_ctrl.masterReadAccesses::.cpu.data         7896                       # Per-master read serviced memory accesses
system.mem_ctrl.masterWriteAccesses::.writebacks         7231                       # Per-master write serviced memory accesses
system.mem_ctrl.masterReadTotalLat::.cpu.inst     18973250                       # Per-master read total memory access latency
system.mem_ctrl.masterReadTotalLat::.cpu.data    216152500                       # Per-master read total memory access latency
system.mem_ctrl.masterWriteTotalLat::.writebacks  81012290750                       # Per-master write total memory access latency
system.mem_ctrl.masterReadAvgLat::.cpu.inst     25604.93                       # Per-master read average memory access latency
system.mem_ctrl.masterReadAvgLat::.cpu.data     27374.94                       # Per-master read average memory access latency
system.mem_ctrl.masterWriteAvgLat::.writebacks  11203469.89                       # Per-master write average memory access latency
system.mem_ctrl.pageHitRate                     89.33                       # Row buffer hit rate, read and write combined
system.mem_ctrl.rank1.actEnergy               7075740                       # Energy for activate commands per rank (pJ)
system.mem_ctrl.rank1.preEnergy               3760845                       # Energy for precharge commands per rank (pJ)
system.mem_ctrl.rank1.readEnergy             33001080                       # Energy for read commands per rank (pJ)
system.mem_ctrl.rank1.writeEnergy            21850920                       # Energy for write commands per rank (pJ)
system.mem_ctrl.rank1.refreshEnergy      283349040.000000                       # Energy for refresh commands per rank (pJ)
system.mem_ctrl.rank1.actBackEnergy        1232442030                       # Energy for active background per rank (pJ)
system.mem_ctrl.rank1.preBackEnergy         340808160                       # Energy for precharge background per rank (pJ)
system.mem_ctrl.rank1.actPowerDownEnergy            0                       # Energy for active power-down per rank (pJ)
system.mem_ctrl.rank1.prePowerDownEnergy            0                       # Energy for precharge power-down per rank (pJ)
system.mem_ctrl.rank1.selfRefreshEnergy             0                       # Energy for self refresh per rank (pJ)
system.mem_ctrl.rank1.totalEnergy          1922287815                       # Total energy per rank (pJ)
system.mem_ctrl.rank1.averagePower         535.419825                       # Core power per rank (mW)
system.mem_ctrl.rank1.totalIdleTime                 0                       # Total Idle time Per DRAM Rank
system.mem_ctrl.rank1.memoryStateTime::IDLE    873237500                       # Time in different power states
system.mem_ctrl.rank1.memoryStateTime::REF    119860000                       # Time in different power states
system.mem_ctrl.rank1.memoryStateTime::SREF            0                       # Time in different power states
system.mem_ctrl.rank1.memoryStateTime::PRE_PDN            0                       # Time in different power states
system.mem_ctrl.rank1.memoryStateTime::ACT   2597146500                       # Time in different power states
system.mem_ctrl.rank1.memoryStateTime::ACT_PDN            0                       # Time in different power states
system.mem_ctrl.rank0.actEnergy               4805220                       # Energy for activate commands per rank (pJ)
system.mem_ctrl.rank0.preEnergy               2550240                       # Energy for precharge commands per rank (pJ)
system.mem_ctrl.rank0.readEnergy             28659960                       # Energy for read commands per rank (pJ)
system.mem_ctrl.rank0.writeEnergy            15649560                       # Energy for write commands per rank (pJ)
system.mem_ctrl.rank0.refreshEnergy      283349040.000000                       # Energy for refresh commands per rank (pJ)
system.mem_ctrl.rank0.actBackEnergy         429630660                       # Energy for active background per rank (pJ)
system.mem_ctrl.rank0.preBackEnergy        1016859840                       # Energy for precharge background per rank (pJ)
system.mem_ctrl.rank0.actPowerDownEnergy            0                       # Energy for active power-down per rank (pJ)
system.mem_ctrl.rank0.prePowerDownEnergy            0                       # Energy for precharge power-down per rank (pJ)
system.mem_ctrl.rank0.selfRefreshEnergy             0                       # Energy for self refresh per rank (pJ)
system.mem_ctrl.rank0.totalEnergy          1781504520                       # Total energy per rank (pJ)
system.mem_ctrl.rank0.averagePower         496.207088                       # Core power per rank (mW)
system.mem_ctrl.rank0.totalIdleTime                 0                       # Total Idle time Per DRAM Rank
system.mem_ctrl.rank0.memoryStateTime::IDLE   2637478500                       # Time in different power states
system.mem_ctrl.rank0.memoryStateTime::REF    119860000                       # Time in different power states
system.mem_ctrl.rank0.memoryStateTime::SREF            0                       # Time in different power states
system.mem_ctrl.rank0.memoryStateTime::PRE_PDN            0                       # Time in different power states
system.mem_ctrl.rank0.memoryStateTime::ACT    832905500                       # Time in different power states
system.mem_ctrl.rank0.memoryStateTime::ACT_PDN            0                       # Time in different power states
system.mem_ctrl.power_state.pwrStateResidencyTicks::UNDEFINED   3590244000                       # Cumulative time (in ticks) in various power states
system.cache_medium.blocked_cycles::no_mshrs            0                       # number of cycles access was blocked
system.cache_medium.blocked_cycles::no_targets            0                       # number of cycles access was blocked
system.cache_medium.blocked::no_mshrs               0                       # number of cycles access was blocked
system.cache_medium.blocked::no_targets             0                       # number of cycles access was blocked
system.cache_medium.avg_blocked_cycles::no_mshrs          nan                       # average number of cycles each access was blocked
system.cache_medium.avg_blocked_cycles::no_targets          nan                       # average number of cycles each access was blocked
system.cache_medium.replacements                    0                       # number of replacements
system.cache_medium.power_state.pwrStateResidencyTicks::UNDEFINED   3590244000                       # Cumulative time (in ticks) in various power states
system.cache_medium.tags.tagsinuse                  0                       # Cycle average of tags in use
system.cache_medium.tags.total_refs                 0                       # Total number of references to valid blocks.
system.cache_medium.tags.sampled_refs               0                       # Sample count of references to valid blocks.
system.cache_medium.tags.avg_refs                 nan                       # Average number of references to valid blocks.
system.cache_medium.tags.warmup_cycle               0                       # Cycle when the warmup percentage was hit.
system.cache_medium.tags.tag_accesses               0                       # Number of tag accesses
system.cache_medium.tags.data_accesses              0                       # Number of data accesses
system.cache_medium.tags.power_state.pwrStateResidencyTicks::UNDEFINED   3590244000                       # Cumulative time (in ticks) in various power states
system.clk_domain.clock                          1000                       # Clock period in ticks
system.clk_domain.voltage_domain.voltage            1                       # Voltage in Volts
system.dcache.demand_hits::.cpu.data           153719                       # number of demand (read+write) hits
system.dcache.demand_hits::total               153719                       # number of demand (read+write) hits
system.dcache.overall_hits::.cpu.data          153719                       # number of overall hits
system.dcache.overall_hits::total              153719                       # number of overall hits
system.dcache.demand_misses::.cpu.data           7833                       # number of demand (read+write) misses
system.dcache.demand_misses::total               7833                       # number of demand (read+write) misses
system.dcache.overall_misses::.cpu.data          7931                       # number of overall misses
system.dcache.overall_misses::total              7931                       # number of overall misses
system.dcache.demand_miss_latency::.cpu.data    574790000                       # number of demand (read+write) miss cycles
system.dcache.demand_miss_latency::total    574790000                       # number of demand (read+write) miss cycles
system.dcache.overall_miss_latency::.cpu.data    582078000                       # number of overall miss cycles
system.dcache.overall_miss_latency::total    582078000                       # number of overall miss cycles
system.dcache.demand_accesses::.cpu.data       161552                       # number of demand (read+write) accesses
system.dcache.demand_accesses::total           161552                       # number of demand (read+write) accesses
system.dcache.overall_accesses::.cpu.data       161650                       # number of overall (read+write) accesses
system.dcache.overall_accesses::total          161650                       # number of overall (read+write) accesses
system.dcache.demand_miss_rate::.cpu.data     0.048486                       # miss rate for demand accesses
system.dcache.demand_miss_rate::total        0.048486                       # miss rate for demand accesses
system.dcache.overall_miss_rate::.cpu.data     0.049063                       # miss rate for overall accesses
system.dcache.overall_miss_rate::total       0.049063                       # miss rate for overall accesses
system.dcache.demand_avg_miss_latency::.cpu.data 73380.569386                       # average overall miss latency
system.dcache.demand_avg_miss_latency::total 73380.569386                       # average overall miss latency
system.dcache.overall_avg_miss_latency::.cpu.data 73392.762577                       # average overall miss latency
system.dcache.overall_avg_miss_latency::total 73392.762577                       # average overall miss latency
system.dcache.blocked_cycles::no_mshrs              0                       # number of cycles access was blocked
system.dcache.blocked_cycles::no_targets            0                       # number of cycles access was blocked
system.dcache.blocked::no_mshrs                     0                       # number of cycles access was blocked
system.dcache.blocked::no_targets                   0                       # number of cycles access was blocked
system.dcache.avg_blocked_cycles::no_mshrs          nan                       # average number of cycles each access was blocked
system.dcache.avg_blocked_cycles::no_targets          nan                       # average number of cycles each access was blocked
system.dcache.writebacks::.writebacks            7490                       # number of writebacks
system.dcache.writebacks::total                  7490                       # number of writebacks
system.dcache.demand_mshr_misses::.cpu.data         7833                       # number of demand (read+write) MSHR misses
system.dcache.demand_mshr_misses::total          7833                       # number of demand (read+write) MSHR misses
system.dcache.overall_mshr_misses::.cpu.data         7931                       # number of overall MSHR misses
system.dcache.overall_mshr_misses::total         7931                       # number of overall MSHR misses
system.dcache.demand_mshr_miss_latency::.cpu.data    559126000                       # number of demand (read+write) MSHR miss cycles
system.dcache.demand_mshr_miss_latency::total    559126000                       # number of demand (read+write) MSHR miss cycles
system.dcache.overall_mshr_miss_latency::.cpu.data    566218000                       # number of overall MSHR miss cycles
system.dcache.overall_mshr_miss_latency::total    566218000                       # number of overall MSHR miss cycles
system.dcache.demand_mshr_miss_rate::.cpu.data     0.048486                       # mshr miss rate for demand accesses
system.dcache.demand_mshr_miss_rate::total     0.048486                       # mshr miss rate for demand accesses
system.dcache.overall_mshr_miss_rate::.cpu.data     0.049063                       # mshr miss rate for overall accesses
system.dcache.overall_mshr_miss_rate::total     0.049063                       # mshr miss rate for overall accesses
system.dcache.demand_avg_mshr_miss_latency::.cpu.data 71380.824716                       # average overall mshr miss latency
system.dcache.demand_avg_mshr_miss_latency::total 71380.824716                       # average overall mshr miss latency
system.dcache.overall_avg_mshr_miss_latency::.cpu.data 71393.014752                       # average overall mshr miss latency
system.dcache.overall_avg_mshr_miss_latency::total 71393.014752                       # average overall mshr miss latency
system.dcache.replacements                       7674                       # number of replacements
system.dcache.ReadReq_hits::.cpu.data           27808                       # number of ReadReq hits
system.dcache.ReadReq_hits::total               27808                       # number of ReadReq hits
system.dcache.ReadReq_misses::.cpu.data           227                       # number of ReadReq misses
system.dcache.ReadReq_misses::total               227                       # number of ReadReq misses
system.dcache.ReadReq_miss_latency::.cpu.data     15840000                       # number of ReadReq miss cycles
system.dcache.ReadReq_miss_latency::total     15840000                       # number of ReadReq miss cycles
system.dcache.ReadReq_accesses::.cpu.data        28035                       # number of ReadReq accesses(hits+misses)
system.dcache.ReadReq_accesses::total           28035                       # number of ReadReq accesses(hits+misses)
system.dcache.ReadReq_miss_rate::.cpu.data     0.008097                       # miss rate for ReadReq accesses
system.dcache.ReadReq_miss_rate::total       0.008097                       # miss rate for ReadReq accesses
system.dcache.ReadReq_avg_miss_latency::.cpu.data 69779.735683                       # average ReadReq miss latency
system.dcache.ReadReq_avg_miss_latency::total 69779.735683                       # average ReadReq miss latency
system.dcache.ReadReq_mshr_misses::.cpu.data          227                       # number of ReadReq MSHR misses
system.dcache.ReadReq_mshr_misses::total          227                       # number of ReadReq MSHR misses
system.dcache.ReadReq_mshr_miss_latency::.cpu.data     15386000                       # number of ReadReq MSHR miss cycles
system.dcache.ReadReq_mshr_miss_latency::total     15386000                       # number of ReadReq MSHR miss cycles
system.dcache.ReadReq_mshr_miss_rate::.cpu.data     0.008097                       # mshr miss rate for ReadReq accesses
system.dcache.ReadReq_mshr_miss_rate::total     0.008097                       # mshr miss rate for ReadReq accesses
system.dcache.ReadReq_avg_mshr_miss_latency::.cpu.data 67779.735683                       # average ReadReq mshr miss latency
system.dcache.ReadReq_avg_mshr_miss_latency::total 67779.735683                       # average ReadReq mshr miss latency
system.dcache.WriteReq_hits::.cpu.data         125911                       # number of WriteReq hits
system.dcache.WriteReq_hits::total             125911                       # number of WriteReq hits
system.dcache.WriteReq_misses::.cpu.data         7606                       # number of WriteReq misses
system.dcache.WriteReq_misses::total             7606                       # number of WriteReq misses
system.dcache.WriteReq_miss_latency::.cpu.data    558950000                       # number of WriteReq miss cycles
system.dcache.WriteReq_miss_latency::total    558950000                       # number of WriteReq miss cycles
system.dcache.WriteReq_accesses::.cpu.data       133517                       # number of WriteReq accesses(hits+misses)
system.dcache.WriteReq_accesses::total         133517                       # number of WriteReq accesses(hits+misses)
system.dcache.WriteReq_miss_rate::.cpu.data     0.056967                       # miss rate for WriteReq accesses
system.dcache.WriteReq_miss_rate::total      0.056967                       # miss rate for WriteReq accesses
system.dcache.WriteReq_avg_miss_latency::.cpu.data 73488.035761                       # average WriteReq miss latency
system.dcache.WriteReq_avg_miss_latency::total 73488.035761                       # average WriteReq miss latency
system.dcache.WriteReq_mshr_misses::.cpu.data         7606                       # number of WriteReq MSHR misses
system.dcache.WriteReq_mshr_misses::total         7606                       # number of WriteReq MSHR misses
system.dcache.WriteReq_mshr_miss_latency::.cpu.data    543740000                       # number of WriteReq MSHR miss cycles
system.dcache.WriteReq_mshr_miss_latency::total    543740000                       # number of WriteReq MSHR miss cycles
system.dcache.WriteReq_mshr_miss_rate::.cpu.data     0.056967                       # mshr miss rate for WriteReq accesses
system.dcache.WriteReq_mshr_miss_rate::total     0.056967                       # mshr miss rate for WriteReq accesses
system.dcache.WriteReq_avg_mshr_miss_latency::.cpu.data 71488.298712                       # average WriteReq mshr miss latency
system.dcache.WriteReq_avg_mshr_miss_latency::total 71488.298712                       # average WriteReq mshr miss latency
system.dcache.SoftPFReq_misses::.cpu.data           98                       # number of SoftPFReq misses
system.dcache.SoftPFReq_misses::total              98                       # number of SoftPFReq misses
system.dcache.SoftPFReq_miss_latency::.cpu.data      7288000                       # number of SoftPFReq miss cycles
system.dcache.SoftPFReq_miss_latency::total      7288000                       # number of SoftPFReq miss cycles
system.dcache.SoftPFReq_accesses::.cpu.data           98                       # number of SoftPFReq accesses(hits+misses)
system.dcache.SoftPFReq_accesses::total            98                       # number of SoftPFReq accesses(hits+misses)
system.dcache.SoftPFReq_miss_rate::.cpu.data            1                       # miss rate for SoftPFReq accesses
system.dcache.SoftPFReq_miss_rate::total            1                       # miss rate for SoftPFReq accesses
system.dcache.SoftPFReq_avg_miss_latency::.cpu.data 74367.346939                       # average SoftPFReq miss latency
system.dcache.SoftPFReq_avg_miss_latency::total 74367.346939                       # average SoftPFReq miss latency
system.dcache.SoftPFReq_mshr_misses::.cpu.data           98                       # number of SoftPFReq MSHR misses
system.dcache.SoftPFReq_mshr_misses::total           98                       # number of SoftPFReq MSHR misses
system.dcache.SoftPFReq_mshr_miss_latency::.cpu.data      7092000                       # number of SoftPFReq MSHR miss cycles
system.dcache.SoftPFReq_mshr_miss_latency::total      7092000                       # number of SoftPFReq MSHR miss cycles
system.dcache.SoftPFReq_mshr_miss_rate::.cpu.data            1                       # mshr miss rate for SoftPFReq accesses
system.dcache.SoftPFReq_mshr_miss_rate::total            1                       # mshr miss rate for SoftPFReq accesses
system.dcache.SoftPFReq_avg_mshr_miss_latency::.cpu.data 72367.346939                       # average SoftPFReq mshr miss latency
system.dcache.SoftPFReq_avg_mshr_miss_latency::total 72367.346939                       # average SoftPFReq mshr miss latency
system.dcache.power_state.pwrStateResidencyTicks::UNDEFINED   3590244000                       # Cumulative time (in ticks) in various power states
system.dcache.tags.tagsinuse               247.038447                       # Cycle average of tags in use
system.dcache.tags.total_refs                  159601                       # Total number of references to valid blocks.
system.dcache.tags.sampled_refs                  7674                       # Sample count of references to valid blocks.
system.dcache.tags.avg_refs                 20.797628                       # Average number of references to valid blocks.
system.dcache.tags.warmup_cycle                181000                       # Cycle when the warmup percentage was hit.
system.dcache.tags.occ_blocks::.cpu.data   247.038447                       # Average occupied blocks per requestor
system.dcache.tags.occ_percent::.cpu.data     0.964994                       # Average percentage of cache occupancy
system.dcache.tags.occ_percent::total        0.964994                       # Average percentage of cache occupancy
system.dcache.tags.occ_task_id_blocks::1024          256                       # Occupied blocks per task id
system.dcache.tags.age_task_id_blocks_1024::0           92                       # Occupied blocks per task id
system.dcache.tags.age_task_id_blocks_1024::1          164                       # Occupied blocks per task id
system.dcache.tags.occ_task_id_percent::1024            1                       # Percentage of cache occupancy per task id
system.dcache.tags.tag_accesses                169580                       # Number of tag accesses
system.dcache.tags.data_accesses               169580                       # Number of data accesses
system.dcache.tags.power_state.pwrStateResidencyTicks::UNDEFINED   3590244000                       # Cumulative time (in ticks) in various power states
system.cache_large.blocked_cycles::no_mshrs            0                       # number of cycles access was blocked
system.cache_large.blocked_cycles::no_targets            0                       # number of cycles access was blocked
system.cache_large.blocked::no_mshrs                0                       # number of cycles access was blocked
system.cache_large.blocked::no_targets              0                       # number of cycles access was blocked
system.cache_large.avg_blocked_cycles::no_mshrs          nan                       # average number of cycles each access was blocked
system.cache_large.avg_blocked_cycles::no_targets          nan                       # average number of cycles each access was blocked
system.cache_large.replacements                     0                       # number of replacements
system.cache_large.power_state.pwrStateResidencyTicks::UNDEFINED   3590244000                       # Cumulative time (in ticks) in various power states
system.cache_large.tags.tagsinuse                   0                       # Cycle average of tags in use
system.cache_large.tags.total_refs                  0                       # Total number of references to valid blocks.
system.cache_large.tags.sampled_refs                0                       # Sample count of references to valid blocks.
system.cache_large.tags.avg_refs                  nan                       # Average number of references to valid blocks.
system.cache_large.tags.warmup_cycle                0                       # Cycle when the warmup percentage was hit.
system.cache_large.tags.tag_accesses                0                       # Number of tag accesses
system.cache_large.tags.data_accesses               0                       # Number of data accesses
system.cache_large.tags.power_state.pwrStateResidencyTicks::UNDEFINED   3590244000                       # Cumulative time (in ticks) in various power states
system.l2cache.demand_hits::.cpu.inst              12                       # number of demand (read+write) hits
system.l2cache.demand_hits::.cpu.data              34                       # number of demand (read+write) hits
system.l2cache.demand_hits::total                  46                       # number of demand (read+write) hits
system.l2cache.overall_hits::.cpu.inst             12                       # number of overall hits
system.l2cache.overall_hits::.cpu.data             34                       # number of overall hits
system.l2cache.overall_hits::total                 46                       # number of overall hits
system.l2cache.demand_misses::.cpu.inst           741                       # number of demand (read+write) misses
[...]
system.dcache.tags.occ_percent::total        0.998717                       # Average percentage of cache occupancy
system.dcache.tags.occ_task_id_blocks::1024          256                       # Occupied blocks per task id
system.dcache.tags.age_task_id_blocks_1024::0           87                       # Occupied blocks per task id
system.dcache.tags.age_task_id_blocks_1024::1          169                       # Occupied blocks per task id
system.dcache.tags.occ_task_id_percent::1024            1                       # Percentage of cache occupancy per task id
system.dcache.tags.tag_accesses               7883858                       # Number of tag accesses
system.dcache.tags.data_accesses              7883858                       # Number of data accesses
system.dcache.tags.power_state.pwrStateResidencyTicks::UNDEFINED  97991469000                       # Cumulative time (in ticks) in various power states
system.cache_large.blocked_cycles::no_mshrs            0                       # number of cycles access was blocked
system.cache_large.blocked_cycles::no_targets            0                       # number of cycles access was blocked
system.cache_large.blocked::no_mshrs                0                       # number of cycles access was blocked
system.cache_large.blocked::no_targets              0                       # number of cycles access was blocked
system.cache_large.avg_blocked_cycles::no_mshrs          nan                       # average number of cycles each access was blocked
system.cache_large.avg_blocked_cycles::no_targets          nan                       # average number of cycles each access was blocked
system.cache_large.replacements                     0                       # number of replacements
system.cache_large.power_state.pwrStateResidencyTicks::UNDEFINED  97991469000                       # Cumulative time (in ticks) in various power states
system.cache_large.tags.tagsinuse                   0                       # Cycle average of tags in use
system.cache_large.tags.total_refs                  0                       # Total number of references to valid blocks.
system.cache_large.tags.sampled_refs                0                       # Sample count of references to valid blocks.
system.cache_large.tags.avg_refs                  nan                       # Average number of references to valid blocks.
system.cache_large.tags.warmup_cycle                0                       # Cycle when the warmup percentage was hit.
system.cache_large.tags.tag_accesses                0                       # Number of tag accesses
system.cache_large.tags.data_accesses               0                       # Number of data accesses
system.cache_large.tags.power_state.pwrStateResidencyTicks::UNDEFINED  97991469000                       # Cumulative time (in ticks) in various power states
system.l2cache.demand_hits::.cpu.inst              12                       # number of demand (read+write) hits
system.l2cache.demand_hits::.cpu.data              34                       # number of demand (read+write) hits
system.l2cache.demand_hits::total                  46                       # number of demand (read+write) hits
system.l2cache.overall_hits::.cpu.inst             12                       # number of overall hits
system.l2cache.overall_hits::.cpu.data             34                       # number of overall hits
system.l2cache.overall_hits::total                 46                       # number of overall hits
system.l2cache.demand_misses::.cpu.inst           741                       # number of demand (read+write) misses
system.l2cache.demand_misses::.cpu.data        865038                       # number of demand (read+write) misses
system.l2cache.demand_misses::total            865779                       # number of demand (read+write) misses
system.l2cache.overall_misses::.cpu.inst          741                       # number of overall misses
system.l2cache.overall_misses::.cpu.data       865038                       # number of overall misses
system.l2cache.overall_misses::total           865779                       # number of overall misses
system.l2cache.demand_miss_latency::.cpu.inst     48858000                       # number of demand (read+write) miss cycles
system.l2cache.demand_miss_latency::.cpu.data  60622940000                       # number of demand (read+write) miss cycles
system.l2cache.demand_miss_latency::total  60671798000                       # number of demand (read+write) miss cycles
system.l2cache.overall_miss_latency::.cpu.inst     48858000                       # number of overall miss cycles
system.l2cache.overall_miss_latency::.cpu.data  60622940000                       # number of overall miss cycles
system.l2cache.overall_miss_latency::total  60671798000                       # number of overall miss cycles
system.l2cache.demand_accesses::.cpu.inst          753                       # number of demand (read+write) accesses
system.l2cache.demand_accesses::.cpu.data       865072                       # number of demand (read+write) accesses
system.l2cache.demand_accesses::total          865825                       # number of demand (read+write) accesses
system.l2cache.overall_accesses::.cpu.inst          753                       # number of overall (read+write) accesses
system.l2cache.overall_accesses::.cpu.data       865072                       # number of overall (read+write) accesses
system.l2cache.overall_accesses::total         865825                       # number of overall (read+write) accesses
system.l2cache.demand_miss_rate::.cpu.inst     0.984064                       # miss rate for demand accesses
system.l2cache.demand_miss_rate::.cpu.data     0.999961                       # miss rate for demand accesses
system.l2cache.demand_miss_rate::total       0.999947                       # miss rate for demand accesses
system.l2cache.overall_miss_rate::.cpu.inst     0.984064                       # miss rate for overall accesses
system.l2cache.overall_miss_rate::.cpu.data     0.999961                       # miss rate for overall accesses
system.l2cache.overall_miss_rate::total      0.999947                       # miss rate for overall accesses
system.l2cache.demand_avg_miss_latency::.cpu.inst 65935.222672                       # average overall miss latency
system.l2cache.demand_avg_miss_latency::.cpu.data 70081.244986                       # average overall miss latency
system.l2cache.demand_avg_miss_latency::total 70077.696502                       # average overall miss latency
system.l2cache.overall_avg_miss_latency::.cpu.inst 65935.222672                       # average overall miss latency
system.l2cache.overall_avg_miss_latency::.cpu.data 70081.244986                       # average overall miss latency
system.l2cache.overall_avg_miss_latency::total 70077.696502                       # average overall miss latency
system.l2cache.blocked_cycles::no_mshrs             0                       # number of cycles access was blocked
system.l2cache.blocked_cycles::no_targets            0                       # number of cycles access was blocked
system.l2cache.blocked::no_mshrs                    0                       # number of cycles access was blocked
system.l2cache.blocked::no_targets                  0                       # number of cycles access was blocked
system.l2cache.avg_blocked_cycles::no_mshrs          nan                       # average number of cycles each access was blocked
system.l2cache.avg_blocked_cycles::no_targets          nan                       # average number of cycles each access was blocked
system.l2cache.writebacks::.writebacks         864373                       # number of writebacks
system.l2cache.writebacks::total               864373                       # number of writebacks
system.l2cache.demand_mshr_misses::.cpu.inst          741                       # number of demand (read+write) MSHR misses
system.l2cache.demand_mshr_misses::.cpu.data       865038                       # number of demand (read+write) MSHR misses
system.l2cache.demand_mshr_misses::total       865779                       # number of demand (read+write) MSHR misses
system.l2cache.overall_mshr_misses::.cpu.inst          741                       # number of overall MSHR misses
system.l2cache.overall_mshr_misses::.cpu.data       865038                       # number of overall MSHR misses
system.l2cache.overall_mshr_misses::total       865779                       # number of overall MSHR misses
system.l2cache.demand_mshr_miss_latency::.cpu.inst     47376000                       # number of demand (read+write) MSHR miss cycles
system.l2cache.demand_mshr_miss_latency::.cpu.data  58892864000                       # number of demand (read+write) MSHR miss cycles
system.l2cache.demand_mshr_miss_latency::total  58940240000                       # number of demand (read+write) MSHR miss cycles
system.l2cache.overall_mshr_miss_latency::.cpu.inst     47376000                       # number of overall MSHR miss cycles
system.l2cache.overall_mshr_miss_latency::.cpu.data  58892864000                       # number of overall MSHR miss cycles
system.l2cache.overall_mshr_miss_latency::total  58940240000                       # number of overall MSHR miss cycles
system.l2cache.demand_mshr_miss_rate::.cpu.inst     0.984064                       # mshr miss rate for demand accesses
system.l2cache.demand_mshr_miss_rate::.cpu.data     0.999961                       # mshr miss rate for demand accesses
system.l2cache.demand_mshr_miss_rate::total     0.999947                       # mshr miss rate for demand accesses
system.l2cache.overall_mshr_miss_rate::.cpu.inst     0.984064                       # mshr miss rate for overall accesses
system.l2cache.overall_mshr_miss_rate::.cpu.data     0.999961                       # mshr miss rate for overall accesses
system.l2cache.overall_mshr_miss_rate::total     0.999947                       # mshr miss rate for overall accesses
system.l2cache.demand_avg_mshr_miss_latency::.cpu.inst 63935.222672                       # average overall mshr miss latency
system.l2cache.demand_avg_mshr_miss_latency::.cpu.data 68081.244986                       # average overall mshr miss latency
system.l2cache.demand_avg_mshr_miss_latency::total 68077.696502                       # average overall mshr miss latency
system.l2cache.overall_avg_mshr_miss_latency::.cpu.inst 63935.222672                       # average overall mshr miss latency
system.l2cache.overall_avg_mshr_miss_latency::.cpu.data 68081.244986                       # average overall mshr miss latency
system.l2cache.overall_avg_mshr_miss_latency::total 68077.696502                       # average overall mshr miss latency
system.l2cache.replacements                    866096                       # number of replacements
system.l2cache.ReadReq_hits::.cpu.inst             12                       # number of ReadReq hits
system.l2cache.ReadReq_hits::.cpu.data             34                       # number of ReadReq hits
system.l2cache.ReadReq_hits::total                 46                       # number of ReadReq hits
system.l2cache.ReadReq_misses::.cpu.inst          741                       # number of ReadReq misses
system.l2cache.ReadReq_misses::.cpu.data       865038                       # number of ReadReq misses
system.l2cache.ReadReq_misses::total           865779                       # number of ReadReq misses
system.l2cache.ReadReq_miss_latency::.cpu.inst     48858000                       # number of ReadReq miss cycles
system.l2cache.ReadReq_miss_latency::.cpu.data  60622940000                       # number of ReadReq miss cycles
system.l2cache.ReadReq_miss_latency::total  60671798000                       # number of ReadReq miss cycles
system.l2cache.ReadReq_accesses::.cpu.inst          753                       # number of ReadReq accesses(hits+misses)
system.l2cache.ReadReq_accesses::.cpu.data       865072                       # number of ReadReq accesses(hits+misses)
system.l2cache.ReadReq_accesses::total         865825                       # number of ReadReq accesses(hits+misses)
system.l2cache.ReadReq_miss_rate::.cpu.inst     0.984064                       # miss rate for ReadReq accesses
system.l2cache.ReadReq_miss_rate::.cpu.data     0.999961                       # miss rate for ReadReq accesses
system.l2cache.ReadReq_miss_rate::total      0.999947                       # miss rate for ReadReq accesses
system.l2cache.ReadReq_avg_miss_latency::.cpu.inst 65935.222672                       # average ReadReq miss latency
system.l2cache.ReadReq_avg_miss_latency::.cpu.data 70081.244986                       # average ReadReq miss latency
system.l2cache.ReadReq_avg_miss_latency::total 70077.696502                       # average ReadReq miss latency
system.l2cache.ReadReq_mshr_misses::.cpu.inst          741                       # number of ReadReq MSHR misses
system.l2cache.ReadReq_mshr_misses::.cpu.data       865038                       # number of ReadReq MSHR misses
system.l2cache.ReadReq_mshr_misses::total       865779                       # number of ReadReq MSHR misses
system.l2cache.ReadReq_mshr_miss_latency::.cpu.inst     47376000                       # number of ReadReq MSHR miss cycles
system.l2cache.ReadReq_mshr_miss_latency::.cpu.data  58892864000                       # number of ReadReq MSHR miss cycles
system.l2cache.ReadReq_mshr_miss_latency::total  58940240000                       # number of ReadReq MSHR miss cycles
system.l2cache.ReadReq_mshr_miss_rate::.cpu.inst     0.984064                       # mshr miss rate for ReadReq accesses
system.l2cache.ReadReq_mshr_miss_rate::.cpu.data     0.999961                       # mshr miss rate for ReadReq accesses
system.l2cache.ReadReq_mshr_miss_rate::total     0.999947                       # mshr miss rate for ReadReq accesses
system.l2cache.ReadReq_avg_mshr_miss_latency::.cpu.inst 63935.222672                       # average ReadReq mshr miss latency
system.l2cache.ReadReq_avg_mshr_miss_latency::.cpu.data 68081.244986                       # average ReadReq mshr miss latency
system.l2cache.ReadReq_avg_mshr_miss_latency::total 68077.696502                       # average ReadReq mshr miss latency
system.l2cache.WritebackDirty_hits::.writebacks       864632                       # number of WritebackDirty hits
system.l2cache.WritebackDirty_hits::total       864632                       # number of WritebackDirty hits
system.l2cache.WritebackDirty_accesses::.writebacks       864632                       # number of WritebackDirty accesses(hits+misses)
system.l2cache.WritebackDirty_accesses::total       864632                       # number of WritebackDirty accesses(hits+misses)
system.l2cache.power_state.pwrStateResidencyTicks::UNDEFINED  97991469000                       # Cumulative time (in ticks) in various power states
system.l2cache.tags.tagsinuse              510.976312                       # Cycle average of tags in use
system.l2cache.tags.total_refs                1730457                       # Total number of references to valid blocks.
system.l2cache.tags.sampled_refs               866608                       # Sample count of references to valid blocks.
system.l2cache.tags.avg_refs                 1.996816                       # Average number of references to valid blocks.
system.l2cache.tags.warmup_cycle                76000                       # Cycle when the warmup percentage was hit.
system.l2cache.tags.occ_blocks::.writebacks     1.872020                       # Average occupied blocks per requestor
system.l2cache.tags.occ_blocks::.cpu.inst     1.776496                       # Average occupied blocks per requestor
system.l2cache.tags.occ_blocks::.cpu.data   507.327796                       # Average occupied blocks per requestor
system.l2cache.tags.occ_percent::.writebacks     0.003656                       # Average percentage of cache occupancy
system.l2cache.tags.occ_percent::.cpu.inst     0.003470                       # Average percentage of cache occupancy
system.l2cache.tags.occ_percent::.cpu.data     0.990875                       # Average percentage of cache occupancy
system.l2cache.tags.occ_percent::total       0.998001                       # Average percentage of cache occupancy
system.l2cache.tags.occ_task_id_blocks::1024          512                       # Occupied blocks per task id
system.l2cache.tags.age_task_id_blocks_1024::0           87                       # Occupied blocks per task id
system.l2cache.tags.age_task_id_blocks_1024::1          425                       # Occupied blocks per task id
system.l2cache.tags.occ_task_id_percent::1024            1                       # Percentage of cache occupancy per task id
system.l2cache.tags.tag_accesses              2597065                       # Number of tag accesses
system.l2cache.tags.data_accesses             2597065                       # Number of data accesses
system.l2cache.tags.power_state.pwrStateResidencyTicks::UNDEFINED  97991469000                       # Cumulative time (in ticks) in various power states
system.l2bar.trans_dist::ReadReq               865825                       # Transaction distribution
system.l2bar.trans_dist::ReadResp              865825                       # Transaction distribution
system.l2bar.trans_dist::WritebackDirty        864632                       # Transaction distribution
system.l2bar.pkt_count_system.dcache.mem_side::system.l2cache.cpu_side      2594776                       # Packet count per connected master and slave (bytes)
system.l2bar.pkt_count_system.icache.mem_side::system.l2cache.cpu_side         1506                       # Packet count per connected master and slave (bytes)
system.l2bar.pkt_count::total                 2596282                       # Packet count per connected master and slave (bytes)
system.l2bar.pkt_size_system.dcache.mem_side::system.l2cache.cpu_side    110701056                       # Cumulative packet size per connected master and slave (bytes)
system.l2bar.pkt_size_system.icache.mem_side::system.l2cache.cpu_side        48192                       # Cumulative packet size per connected master and slave (bytes)
system.l2bar.pkt_size::total                110749248                       # Cumulative packet size per connected master and slave (bytes)
system.l2bar.respLayer1.occupancy             3765000                       # Layer occupancy (ticks)
system.l2bar.respLayer1.utilization               0.0                       # Layer utilization (%)
system.l2bar.reqLayer0.occupancy           5188985000                       # Layer occupancy (ticks)
system.l2bar.reqLayer0.utilization                5.3                       # Layer utilization (%)
system.l2bar.respLayer0.occupancy          4325360000                       # Layer occupancy (ticks)
system.l2bar.respLayer0.utilization               4.4                       # Layer utilization (%)
system.l2bar.power_state.pwrStateResidencyTicks::UNDEFINED  97991469000                       # Cumulative time (in ticks) in various power states
system.cpu.dtb.walker.power_state.pwrStateResidencyTicks::UNDEFINED  97991469000                       # Cumulative time (in ticks) in various power states
system.cpu.interrupts.clk_domain.clock          16000                       # Clock period in ticks
system.cpu.itb.walker.power_state.pwrStateResidencyTicks::UNDEFINED  97991469000                       # Cumulative time (in ticks) in various power states
system.cpu.power_state.numTransitions               1                       # Number of power state transitions
system.cpu.power_state.pwrStateResidencyTicks::ON  97991469000                       # Cumulative time (in ticks) in various power states

---------- End Simulation Statistics   ----------
