
---------- Begin Simulation Statistics ----------
final_tick                                 3590703000                       # Number of ticks from beginning of simulation (restored from checkpoints and never reset)
host_inst_rate                                 439879                       # Simulator instruction rate (inst/s)
host_mem_usage                                1279452                       # Number of bytes of host memory used
host_op_rate                                   775485                       # Simulator op (including micro ops) rate (op/s)
host_seconds                                     2.27                       # Real time elapsed on the host
host_tick_rate                             1579350900                       # Simulator tick rate (ticks/s)
sim_freq                                 1000000000000                       # Frequency of simulated ticks
sim_insts                                     1000002                       # Number of instructions simulated
sim_ops                                       1763067                       # Number of ops (including micro ops) simulated
sim_seconds                                  0.003591                       # Number of seconds simulated
sim_ticks                                  3590703000                       # Number of ticks simulated
system.cpu.Branches                            268143                       # Number of branches fetched
system.cpu.committedInsts                     1000002                       # Number of instructions committed
system.cpu.committedOps                       1763067                       # Number of ops (including micro ops) committed
system.cpu.dtb.rdAccesses                       28138                       # TLB accesses on read requests
system.cpu.dtb.rdMisses                            17                       # TLB misses on read requests
system.cpu.dtb.wrAccesses                      133575                       # TLB accesses on write requests
system.cpu.dtb.wrMisses                           233                       # TLB misses on write requests
system.cpu.idle_fraction                            0                       # Percentage of idle cycles
system.cpu.itb.rdAccesses                           0                       # TLB accesses on read requests
system.cpu.itb.rdMisses                             0                       # TLB misses on read requests
system.cpu.itb.wrAccesses                     1323466                       # TLB accesses on write requests
system.cpu.itb.wrMisses                            55                       # TLB misses on write requests
system.cpu.not_idle_fraction                        1                       # Percentage of non-idle cycles
system.cpu.numCycles                          3590692                       # number of cpu cycles simulated
system.cpu.numWorkItemsCompleted                    0                       # number of work items this cpu completed
system.cpu.numWorkItemsStarted                      0                       # number of work items this cpu started
system.cpu.num_busy_cycles                    3590692                       # Number of busy cycles
system.cpu.num_cc_register_reads              1413559                       # number of times the CC registers were read
system.cpu.num_cc_register_writes              720026                       # number of times the CC registers were written
system.cpu.num_conditional_control_insts       230507                       # number of instructions that are conditional controls
system.cpu.num_fp_alu_accesses                  49579                       # Number of float alu accesses
system.cpu.num_fp_insts                         49579                       # number of float instructions
system.cpu.num_fp_register_reads                49916                       # number of times the floating registers were read
system.cpu.num_fp_register_writes                 535                       # number of times the floating registers were written
system.cpu.num_func_calls                        3936                       # number of times a function call or return occured
system.cpu.num_idle_cycles                          0                       # Number of idle cycles
system.cpu.num_int_alu_accesses               1725244                       # Number of integer alu accesses
system.cpu.num_int_insts                      1725244                       # number of integer instructions
system.cpu.num_int_register_reads             2893034                       # number of times the integer registers were read
system.cpu.num_int_register_writes            1324928                       # number of times the integer registers were written
system.cpu.num_load_insts                       28131                       # Number of load instructions
system.cpu.num_mem_refs                        161704                       # number of memory refs
system.cpu.num_store_insts                     133573                       # Number of store instructions
system.cpu.num_vec_alu_accesses                     0                       # Number of vector alu accesses
system.cpu.num_vec_insts                            0                       # number of vector instructions
system.cpu.num_vec_register_reads                   0                       # number of times the vector registers were read
system.cpu.num_vec_register_writes                  0                       # number of times the vector registers were written
system.cpu.op_class::No_OpClass                 33401      1.89%      1.89% # Class of executed instruction
system.cpu.op_class::IntAlu                   1566516     88.85%     90.74% # Class of executed instruction
system.cpu.op_class::IntMult                     1086      0.06%     90.80% # Class of executed instruction
system.cpu.op_class::IntDiv                        21      0.00%     90.80% # Class of executed instruction
system.cpu.op_class::FloatAdd                      11      0.00%     90.80% # Class of executed instruction
system.cpu.op_class::FloatCmp                       0      0.00%     90.80% # Class of executed instruction
system.cpu.op_class::FloatCvt                       0      0.00%     90.80% # Class of executed instruction
system.cpu.op_class::FloatMult                      0      0.00%     90.80% # Class of executed instruction
system.cpu.op_class::FloatMultAcc                   0      0.00%     90.80% # Class of executed instruction
system.cpu.op_class::FloatDiv                       0      0.00%     90.80% # Class of executed instruction
system.cpu.op_class::FloatMisc                      0      0.00%     90.80% # Class of executed instruction
system.cpu.op_class::FloatSqrt                      0      0.00%     90.80% # Class of executed instruction
system.cpu.op_class::SimdAdd                        0      0.00%     90.80% # Class of executed instruction
system.cpu.op_class::SimdAddAcc                     0      0.00%     90.80% # Class of executed instruction
system.cpu.op_class::SimdAlu                      164      0.01%     90.81% # Class of executed instruction
system.cpu.op_class::SimdCmp                       14      0.00%     90.81% # Class of executed instruction
system.cpu.op_class::SimdCvt                       96      0.01%     90.82% # Class of executed instruction
system.cpu.op_class::SimdMisc                     155      0.01%     90.83% # Class of executed instruction
system.cpu.op_class::SimdMult                       0      0.00%     90.83% # Class of executed instruction
system.cpu.op_class::SimdMultAcc                    0      0.00%     90.83% # Class of executed instruction
system.cpu.op_class::SimdShift                      0      0.00%     90.83% # Class of executed instruction
system.cpu.op_class::SimdShiftAcc                   0      0.00%     90.83% # Class of executed instruction
system.cpu.op_class::SimdDiv                        0      0.00%     90.83% # Class of executed instruction
system.cpu.op_class::SimdSqrt                       0      0.00%     90.83% # Class of executed instruction
system.cpu.op_class::SimdFloatAdd                   0      0.00%     90.83% # Class of executed instruction
system.cpu.op_class::SimdFloatAlu                   0      0.00%     90.83% # Class of executed instruction
system.cpu.op_class::SimdFloatCmp                   0      0.00%     90.83% # Class of executed instruction
system.cpu.op_class::SimdFloatCvt                   0      0.00%     90.83% # Class of executed instruction
system.cpu.op_class::SimdFloatDiv                   0      0.00%     90.83% # Class of executed instruction
system.cpu.op_class::SimdFloatMisc                  0      0.00%     90.83% # Class of executed instruction
system.cpu.op_class::SimdFloatMult                  0      0.00%     90.83% # Class of executed instruction
system.cpu.op_class::SimdFloatMultAcc               0      0.00%     90.83% # Class of executed instruction
system.cpu.op_class::SimdFloatSqrt                  0      0.00%     90.83% # Class of executed instruction
system.cpu.op_class::SimdReduceAdd                  0      0.00%     90.83% # Class of executed instruction
system.cpu.op_class::SimdReduceAlu                  0      0.00%     90.83% # Class of executed instruction
system.cpu.op_class::SimdReduceCmp                  0      0.00%     90.83% # Class of executed instruction
system.cpu.op_class::SimdFloatReduceAdd             0      0.00%     90.83% # Class of executed instruction
system.cpu.op_class::SimdFloatReduceCmp             0      0.00%     90.83% # Class of executed instruction
system.cpu.op_class::SimdAes                        0      0.00%     90.83% # Class of executed instruction
system.cpu.op_class::SimdAesMix                     0      0.00%     90.83% # Class of executed instruction
system.cpu.op_class::SimdSha1Hash                   0      0.00%     90.83% # Class of executed instruction
system.cpu.op_class::SimdSha1Hash2                  0      0.00%     90.83% # Class of executed instruction
system.cpu.op_class::SimdSha256Hash                 0      0.00%     90.83% # Class of executed instruction
system.cpu.op_class::SimdSha256Hash2                0      0.00%     90.83% # Class of executed instruction
system.cpu.op_class::SimdShaSigma2                  0      0.00%     90.83% # Class of executed instruction
system.cpu.op_class::SimdShaSigma3                  0      0.00%     90.83% # Class of executed instruction
system.cpu.op_class::SimdPredAlu                    0      0.00%     90.83% # Class of executed instruction
system.cpu.op_class::MemRead                    27993      1.59%     92.42% # Class of executed instruction
system.cpu.op_class::MemWrite                   84607      4.80%     97.22% # Class of executed instruction
system.cpu.op_class::FloatMemRead                 138      0.01%     97.22% # Class of executed instruction
system.cpu.op_class::FloatMemWrite              48966      2.78%    100.00% # Class of executed instruction
system.cpu.op_class::IprAccess                      0      0.00%    100.00% # Class of executed instruction
system.cpu.op_class::InstPrefetch                   0      0.00%    100.00% # Class of executed instruction
system.cpu.op_class::total                    1763168                       # Class of executed instruction
system.cpu.workload.numSyscalls                    11                       # Number of system calls
system.dynamic_cache.flushTicks                     0                       # Ticks taken to flush
system.dynamic_cache.numFlushes                     0                       # Number of Flushes Taken
system.cache_small.blocked_cycles::no_mshrs            0                       # number of cycles access was blocked
system.cache_small.blocked_cycles::no_targets            0                       # number of cycles access was blocked
system.cache_small.blocked::no_mshrs                0                       # number of cycles access was blocked
system.cache_small.blocked::no_targets              0                       # number of cycles access was blocked
system.cache_small.avg_blocked_cycles::no_mshrs          nan                       # average number of cycles each access was blocked
system.cache_small.avg_blocked_cycles::no_targets          nan                       # average number of cycles each access was blocked
system.cache_small.replacements                     0                       # number of replacements
system.cache_small.power_state.pwrStateResidencyTicks::UNDEFINED   3590703000                       # Cumulative time (in ticks) in various power states
system.cache_small.tags.tagsinuse                   0                       # Cycle average of tags in use
system.cache_small.tags.total_refs                  0                       # Total number of references to valid blocks.
system.cache_small.tags.sampled_refs                0                       # Sample count of references to valid blocks.
system.cache_small.tags.avg_refs                  nan                       # Average number of references to valid blocks.
system.cache_small.tags.warmup_cycle                0                       # Cycle when the warmup percentage was hit.
system.cache_small.tags.tag_accesses                0                       # Number of tag accesses
system.cache_small.tags.data_accesses               0                       # Number of data accesses
system.cache_small.tags.power_state.pwrStateResidencyTicks::UNDEFINED   3590703000                       # Cumulative time (in ticks) in various power states
system.icache.demand_hits::.cpu.inst          1322713                       # number of demand (read+write) hits
system.icache.demand_hits::total              1322713                       # number of demand (read+write) hits
system.icache.overall_hits::.cpu.inst         1322713                       # number of overall hits
system.icache.overall_hits::total             1322713                       # number of overall hits
system.icache.demand_misses::.cpu.inst            753                       # number of demand (read+write) misses
system.icache.demand_misses::total                753                       # number of demand (read+write) misses
system.icache.overall_misses::.cpu.inst           753                       # number of overall misses
system.icache.overall_misses::total               753                       # number of overall misses
system.icache.demand_miss_latency::.cpu.inst     53454000                       # number of demand (read+write) miss cycles
system.icache.demand_miss_latency::total     53454000                       # number of demand (read+write) miss cycles
system.icache.overall_miss_latency::.cpu.inst     53454000                       # number of overall miss cycles
system.icache.overall_miss_latency::total     53454000                       # number of overall miss cycles
system.icache.demand_accesses::.cpu.inst      1323466                       # number of demand (read+write) accesses
system.icache.demand_accesses::total          1323466                       # number of demand (read+write) accesses
system.icache.overall_accesses::.cpu.inst      1323466                       # number of overall (read+write) accesses
system.icache.overall_accesses::total         1323466                       # number of overall (read+write) accesses
system.icache.demand_miss_rate::.cpu.inst     0.000569                       # miss rate for demand accesses
system.icache.demand_miss_rate::total        0.000569                       # miss rate for demand accesses
system.icache.overall_miss_rate::.cpu.inst     0.000569                       # miss rate for overall accesses
system.icache.overall_miss_rate::total       0.000569                       # miss rate for overall accesses
system.icache.demand_avg_miss_latency::.cpu.inst 70988.047809                       # average overall miss latency
system.icache.demand_avg_miss_latency::total 70988.047809                       # average overall miss latency
system.icache.overall_avg_miss_latency::.cpu.inst 70988.047809                       # average overall miss latency
system.icache.overall_avg_miss_latency::total 70988.047809                       # average overall miss latency
system.icache.blocked_cycles::no_mshrs              0                       # number of cycles access was blocked
system.icache.blocked_cycles::no_targets            0                       # number of cycles access was blocked
system.icache.blocked::no_mshrs                     0                       # number of cycles access was blocked
system.icache.blocked::no_targets                   0                       # number of cycles access was blocked
system.icache.avg_blocked_cycles::no_mshrs          nan                       # average number of cycles each access was blocked
system.icache.avg_blocked_cycles::no_targets          nan                       # average number of cycles each access was blocked
system.icache.demand_mshr_misses::.cpu.inst          753                       # number of demand (read+write) MSHR misses
system.icache.demand_mshr_misses::total           753                       # number of demand (read+write) MSHR misses
system.icache.overall_mshr_misses::.cpu.inst          753                       # number of overall MSHR misses
system.icache.overall_mshr_misses::total          753                       # number of overall MSHR misses
system.icache.demand_mshr_miss_latency::.cpu.inst     51948000                       # number of demand (read+write) MSHR miss cycles
system.icache.demand_mshr_miss_latency::total     51948000                       # number of demand (read+write) MSHR miss cycles
system.icache.overall_mshr_miss_latency::.cpu.inst     51948000                       # number of overall MSHR miss cycles
system.icache.overall_mshr_miss_latency::total     51948000                       # number of overall MSHR miss cycles
system.icache.demand_mshr_miss_rate::.cpu.inst     0.000569                       # mshr miss rate for demand accesses
system.icache.demand_mshr_miss_rate::total     0.000569                       # mshr miss rate for demand accesses
system.icache.overall_mshr_miss_rate::.cpu.inst     0.000569                       # mshr miss rate for overall accesses
system.icache.overall_mshr_miss_rate::total     0.000569                       # mshr miss rate for overall accesses
system.icache.demand_avg_mshr_miss_latency::.cpu.inst 68988.047809                       # average overall mshr miss latency
system.icache.demand_avg_mshr_miss_latency::total 68988.047809                       # average overall mshr miss latency
system.icache.overall_avg_mshr_miss_latency::.cpu.inst 68988.047809                       # average overall mshr miss latency
system.icache.overall_avg_mshr_miss_latency::total 68988.047809                       # average overall mshr miss latency
system.icache.replacements                        513                       # number of replacements
system.icache.ReadReq_hits::.cpu.inst         1322713                       # number of ReadReq hits
system.icache.ReadReq_hits::total             1322713                       # number of ReadReq hits
system.icache.ReadReq_misses::.cpu.inst           753                       # number of ReadReq misses
system.icache.ReadReq_misses::total               753                       # number of ReadReq misses
system.icache.ReadReq_miss_latency::.cpu.inst     53454000                       # number of ReadReq miss cycles
system.icache.ReadReq_miss_latency::total     53454000                       # number of ReadReq miss cycles
system.icache.ReadReq_accesses::.cpu.inst      1323466                       # number of ReadReq accesses(hits+misses)
system.icache.ReadReq_accesses::total         1323466                       # number of ReadReq accesses(hits+misses)
system.icache.ReadReq_miss_rate::.cpu.inst     0.000569                       # miss rate for ReadReq accesses
system.icache.ReadReq_miss_rate::total       0.000569                       # miss rate for ReadReq accesses
system.icache.ReadReq_avg_miss_latency::.cpu.inst 70988.047809                       # average ReadReq miss latency
system.icache.ReadReq_avg_miss_latency::total 70988.047809                       # average ReadReq miss latency
system.icache.ReadReq_mshr_misses::.cpu.inst          753                       # number of ReadReq MSHR misses
system.icache.ReadReq_mshr_misses::total          753                       # number of ReadReq MSHR misses
system.icache.ReadReq_mshr_miss_latency::.cpu.inst     51948000                       # number of ReadReq MSHR miss cycles
system.icache.ReadReq_mshr_miss_latency::total     51948000                       # number of ReadReq MSHR miss cycles
system.icache.ReadReq_mshr_miss_rate::.cpu.inst     0.000569                       # mshr miss rate for ReadReq accesses
system.icache.ReadReq_mshr_miss_rate::total     0.000569                       # mshr miss rate for ReadReq accesses
system.icache.ReadReq_avg_mshr_miss_latency::.cpu.inst 68988.047809                       # average ReadReq mshr miss latency
system.icache.ReadReq_avg_mshr_miss_latency::total 68988.047809                       # average ReadReq mshr miss latency
system.icache.power_state.pwrStateResidencyTicks::UNDEFINED   3590703000                       # Cumulative time (in ticks) in various power states
system.icache.tags.tagsinuse               233.299424                       # Cycle average of tags in use
system.icache.tags.total_refs                  117197                       # Total number of references to valid blocks.
system.icache.tags.sampled_refs                   513                       # Sample count of references to valid blocks.
system.icache.tags.avg_refs                228.454191                       # Average number of references to valid blocks.
system.icache.tags.warmup_cycle                 80000                       # Cycle when the warmup percentage was hit.
system.icache.tags.occ_blocks::.cpu.inst   233.299424                       # Average occupied blocks per requestor
system.icache.tags.occ_percent::.cpu.inst     0.911326                       # Average percentage of cache occupancy
system.icache.tags.occ_percent::total        0.911326                       # Average percentage of cache occupancy
system.icache.tags.occ_task_id_blocks::1024          240                       # Occupied blocks per task id
system.icache.tags.age_task_id_blocks_1024::2           71                       # Occupied blocks per task id
system.icache.tags.age_task_id_blocks_1024::3          169                       # Occupied blocks per task id
system.icache.tags.occ_task_id_percent::1024     0.937500                       # Percentage of cache occupancy per task id
system.icache.tags.tag_accesses               1324219                       # Number of tag accesses
system.icache.tags.data_accesses              1324219                       # Number of data accesses
system.icache.tags.power_state.pwrStateResidencyTicks::UNDEFINED   3590703000                       # Cumulative time (in ticks) in various power states
system.membus.trans_dist::ReadReq                8631                       # Transaction distribution
system.membus.trans_dist::ReadResp               8631                       # Transaction distribution
system.membus.trans_dist::WritebackDirty         7225                       # Transaction distribution
system.membus.pkt_count_system.dynamic_cache.mem_side::system.mem_ctrl.port        24487                       # Packet count per connected master and slave (bytes)
system.membus.pkt_count_system.dynamic_cache.mem_side::total        24487                       # Packet count per connected master and slave (bytes)
system.membus.pkt_count::total                  24487                       # Packet count per connected master and slave (bytes)
system.membus.pkt_size_system.dynamic_cache.mem_side::system.mem_ctrl.port      1014784                       # Cumulative packet size per connected master and slave (bytes)
system.membus.pkt_size_system.dynamic_cache.mem_side::total      1014784                       # Cumulative packet size per connected master and slave (bytes)
system.membus.pkt_size::total                 1014784                       # Cumulative packet size per connected master and slave (bytes)
system.membus.reqLayer2.occupancy            44756000                       # Layer occupancy (ticks)
system.membus.reqLayer2.utilization               1.2                       # Layer utilization (%)
system.membus.respLayer0.occupancy           45587500                       # Layer occupancy (ticks)
system.membus.respLayer0.utilization              1.3                       # Layer utilization (%)
system.membus.power_state.pwrStateResidencyTicks::UNDEFINED   3590703000                       # Cumulative time (in ticks) in various power states
system.mem_ctrl.bytes_read::.cpu.inst           47424                       # Number of bytes read from this memory
system.mem_ctrl.bytes_read::.cpu.data          504960                       # Number of bytes read from this memory
system.mem_ctrl.bytes_read::total              552384                       # Number of bytes read from this memory
system.mem_ctrl.bytes_inst_read::.cpu.inst        47424                       # Number of instructions bytes read from this memory
system.mem_ctrl.bytes_inst_read::total          47424                       # Number of instructions bytes read from this memory
system.mem_ctrl.bytes_written::.writebacks       462400                       # Number of bytes written to this memory
system.mem_ctrl.bytes_written::total           462400                       # Number of bytes written to this memory
system.mem_ctrl.num_reads::.cpu.inst              741                       # Number of read requests responded to by this memory
system.mem_ctrl.num_reads::.cpu.data             7890                       # Number of read requests responded to by this memory
system.mem_ctrl.num_reads::total                 8631                       # Number of read requests responded to by this memory
system.mem_ctrl.num_writes::.writebacks          7225                       # Number of write requests responded to by this memory
system.mem_ctrl.num_writes::total                7225                       # Number of write requests responded to by this memory
system.mem_ctrl.bw_read::.cpu.inst           13207442                       # Total read bandwidth from this memory (bytes/s)
system.mem_ctrl.bw_read::.cpu.data          140629843                       # Total read bandwidth from this memory (bytes/s)
system.mem_ctrl.bw_read::total              153837285                       # Total read bandwidth from this memory (bytes/s)
system.mem_ctrl.bw_inst_read::.cpu.inst      13207442                       # Instruction read bandwidth from this memory (bytes/s)
system.mem_ctrl.bw_inst_read::total          13207442                       # Instruction read bandwidth from this memory (bytes/s)
system.mem_ctrl.bw_write::.writebacks       128777011                       # Write bandwidth from this memory (bytes/s)
system.mem_ctrl.bw_write::total             128777011                       # Write bandwidth from this memory (bytes/s)
system.mem_ctrl.bw_total::.writebacks       128777011                       # Total bandwidth to/from this memory (bytes/s)
system.mem_ctrl.bw_total::.cpu.inst          13207442                       # Total bandwidth to/from this memory (bytes/s)
system.mem_ctrl.bw_total::.cpu.data         140629843                       # Total bandwidth to/from this memory (bytes/s)
system.mem_ctrl.bw_total::total             282614296                       # Total bandwidth to/from this memory (bytes/s)
system.mem_ctrl.avgPriority_.writebacks::samples      7204.00                       # Average QoS priority value for accepted requests
system.mem_ctrl.avgPriority_.cpu.inst::samples       741.00                       # Average QoS priority value for accepted requests
system.mem_ctrl.avgPriority_.cpu.data::samples      7889.00                       # Average QoS priority value for accepted requests
system.mem_ctrl.priorityMinLatency       0.000000018750                       # per QoS priority minimum request to response latency (s)
system.mem_ctrl.priorityMaxLatency       0.001569268500                       # per QoS priority maximum request to response latency (s)
system.mem_ctrl.numReadWriteTurnArounds           441                       # Number of turnarounds from READ to WRITE
system.mem_ctrl.numWriteReadTurnArounds           441                       # Number of turnarounds from WRITE to READ
system.mem_ctrl.numStayReadState                24988                       # Number of times bus staying in READ state
system.mem_ctrl.numStayWriteState                6755                       # Number of times bus staying in WRITE state
system.mem_ctrl.readReqs                         8631                       # Number of read requests accepted
system.mem_ctrl.writeReqs                        7225                       # Number of write requests accepted
system.mem_ctrl.readBursts                       8631                       # Number of DRAM read bursts, including those serviced by the write queue
system.mem_ctrl.writeBursts                      7225                       # Number of DRAM write bursts, including those merged in the write queue
system.mem_ctrl.servicedByWrQ                       1                       # Number of DRAM read bursts serviced by the write queue
system.mem_ctrl.mergedWrBursts                     21                       # Number of DRAM write bursts merged with an existing one
system.mem_ctrl.neitherReadNorWriteReqs             0                       # Number of requests that are neither read nor write
system.mem_ctrl.perBankRdBursts::0                571                       # Per bank write bursts
system.mem_ctrl.perBankRdBursts::1                509                       # Per bank write bursts
system.mem_ctrl.perBankRdBursts::2                510                       # Per bank write bursts
system.mem_ctrl.perBankRdBursts::3                409                       # Per bank write bursts
system.mem_ctrl.perBankRdBursts::4                369                       # Per bank write bursts
system.mem_ctrl.perBankRdBursts::5                481                       # Per bank write bursts
system.mem_ctrl.perBankRdBursts::6                639                       # Per bank write bursts
system.mem_ctrl.perBankRdBursts::7                520                       # Per bank write bursts
system.mem_ctrl.perBankRdBursts::8                651                       # Per bank write bursts
system.mem_ctrl.perBankRdBursts::9                554                       # Per bank write bursts
system.mem_ctrl.perBankRdBursts::10               572                       # Per bank write bursts
system.mem_ctrl.perBankRdBursts::11               538                       # Per bank write bursts
system.mem_ctrl.perBankRdBursts::12               524                       # Per bank write bursts
system.mem_ctrl.perBankRdBursts::13               533                       # Per bank write bursts
system.mem_ctrl.perBankRdBursts::14               572                       # Per bank write bursts
system.mem_ctrl.perBankRdBursts::15               678                       # Per bank write bursts
system.mem_ctrl.perBankWrBursts::0                363                       # Per bank write bursts
system.mem_ctrl.perBankWrBursts::1                260                       # Per bank write bursts
system.mem_ctrl.perBankWrBursts::2                291                       # Per bank write bursts
system.mem_ctrl.perBankWrBursts::3                270                       # Per bank write bursts
system.mem_ctrl.perBankWrBursts::4                325                       # Per bank write bursts
system.mem_ctrl.perBankWrBursts::5                460                       # Per bank write bursts
system.mem_ctrl.perBankWrBursts::6                517                       # Per bank write bursts
system.mem_ctrl.perBankWrBursts::7                512                       # Per bank write bursts
system.mem_ctrl.perBankWrBursts::8                513                       # Per bank write bursts
system.mem_ctrl.perBankWrBursts::9                517                       # Per bank write bursts
system.mem_ctrl.perBankWrBursts::10               512                       # Per bank write bursts
system.mem_ctrl.perBankWrBursts::11               512                       # Per bank write bursts
system.mem_ctrl.perBankWrBursts::12               512                       # Per bank write bursts
system.mem_ctrl.perBankWrBursts::13               522                       # Per bank write bursts
system.mem_ctrl.perBankWrBursts::14               514                       # Per bank write bursts
system.mem_ctrl.perBankWrBursts::15               584                       # Per bank write bursts
system.mem_ctrl.avgRdQLen                        1.00                       # Average read queue length when enqueuing
system.mem_ctrl.avgWrQLen                       23.33                       # Average write queue length when enqueuing
system.mem_ctrl.totQLat                      74133000                       # Total ticks spent queuing
system.mem_ctrl.totBusLat                    43150000                       # Total ticks spent in databus transfers
system.mem_ctrl.totMemAccLat                235945500                       # Total ticks spent from burst creation until serviced by the DRAM
system.mem_ctrl.avgQLat                       8590.15                       # Average queueing delay per DRAM burst
system.mem_ctrl.avgBusLat                     5000.00                       # Average bus latency per DRAM burst
system.mem_ctrl.avgMemAccLat                 27340.15                       # Average memory access latency per DRAM burst
system.mem_ctrl.numRdRetry                          0                       # Number of times read queue was full causing retry
system.mem_ctrl.numWrRetry                          0                       # Number of times write queue was full causing retry
system.mem_ctrl.readRowHits                      7545                       # Number of row buffer hits during reads
system.mem_ctrl.writeRowHits                     6596                       # Number of row buffer hits during writes
system.mem_ctrl.readRowHitRate                  87.43                       # Row buffer hit rate for reads
system.mem_ctrl.writeRowHitRate                 91.56                       # Row buffer hit rate for writes
system.mem_ctrl.readPktSize::0                      0                       # Read request sizes (log2)
system.mem_ctrl.readPktSize::1                      0                       # Read request sizes (log2)
system.mem_ctrl.readPktSize::2                      0                       # Read request sizes (log2)
system.mem_ctrl.readPktSize::3                      0                       # Read request sizes (log2)
system.mem_ctrl.readPktSize::4                      0                       # Read request sizes (log2)
system.mem_ctrl.readPktSize::5                      0                       # Read request sizes (log2)
system.mem_ctrl.readPktSize::6                   8631                       # Read request sizes (log2)
system.mem_ctrl.writePktSize::0                     0                       # Write request sizes (log2)
system.mem_ctrl.writePktSize::1                     0                       # Write request sizes (log2)
system.mem_ctrl.writePktSize::2                     0                       # Write request sizes (log2)
system.mem_ctrl.writePktSize::3                     0                       # Write request sizes (log2)
system.mem_ctrl.writePktSize::4                     0                       # Write request sizes (log2)
system.mem_ctrl.writePktSize::5                     0                       # Write request sizes (log2)
system.mem_ctrl.writePktSize::6                  7225                       # Write request sizes (log2)
system.mem_ctrl.rdQLenPdf::0                     8630                       # What read queue length does an incoming req see
system.mem_ctrl.rdQLenPdf::1                        0                       # What read queue length does an incoming req see
system.mem_ctrl.rdQLenPdf::2                        0                       # What read queue length does an incoming req see
system.mem_ctrl.rdQLenPdf::3                        0                       # What read queue length does an incoming req see
system.mem_ctrl.rdQLenPdf::4                        0                       # What read queue length does an incoming req see
system.mem_ctrl.rdQLenPdf::5                        0                       # What read queue length does an incoming req see
system.mem_ctrl.rdQLenPdf::6                        0                       # What read queue length does an incoming req see
system.mem_ctrl.rdQLenPdf::7                        0                       # What read queue length does an incoming req see
system.mem_ctrl.rdQLenPdf::8                        0                       # What read queue length does an incoming req see
system.mem_ctrl.rdQLenPdf::9                        0                       # What read queue length does an incoming req see
system.mem_ctrl.rdQLenPdf::10                       0                       # What read queue length does an incoming req see
system.mem_ctrl.rdQLenPdf::11                       0                       # What read queue length does an incoming req see
system.mem_ctrl.rdQLenPdf::12                       0                       # What read queue length does an incoming req see
system.mem_ctrl.rdQLenPdf::13                       0                       # What read queue length does an incoming req see
system.mem_ctrl.rdQLenPdf::14                       0                       # What read queue length does an incoming req see
system.mem_ctrl.rdQLenPdf::15                       0                       # What read queue length does an incoming req see
system.mem_ctrl.rdQLenPdf::16                       0                       # What read queue length does an incoming req see
system.mem_ctrl.rdQLenPdf::17                       0                       # What read queue length does an incoming req see
system.mem_ctrl.rdQLenPdf::18                       0                       # What read queue length does an incoming req see
system.mem_ctrl.rdQLenPdf::19                       0                       # What read queue length does an incoming req see
system.mem_ctrl.rdQLenPdf::20                       0                       # What read queue length does an incoming req see
system.mem_ctrl.rdQLenPdf::21                       0                       # What read queue length does an incoming req see
system.mem_ctrl.rdQLenPdf::22                       0                       # What read queue length does an incoming req see
system.mem_ctrl.rdQLenPdf::23                       0                       # What read queue length does an incoming req see
system.mem_ctrl.rdQLenPdf::24                       0                       # What read queue length does an incoming req see
system.mem_ctrl.rdQLenPdf::25                       0                       # What read queue length does an incoming req see
system.mem_ctrl.rdQLenPdf::26                       0                       # What read queue length does an incoming req see
system.mem_ctrl.rdQLenPdf::27                       0                       # What read queue length does an incoming req see
system.mem_ctrl.rdQLenPdf::28                       0                       # What read queue length does an incoming req see
system.mem_ctrl.rdQLenPdf::29                       0                       # What read queue length does an incoming req see
system.mem_ctrl.rdQLenPdf::30                       0                       # What read queue length does an incoming req see
system.mem_ctrl.rdQLenPdf::31                       0                       # What read queue length does an incoming req see
system.mem_ctrl.wrQLenPdf::0                        1                       # What write queue length does an incoming req see
system.mem_ctrl.wrQLenPdf::1                        1                       # What write queue length does an incoming req see
system.mem_ctrl.wrQLenPdf::2                        1                       # What write queue length does an incoming req see
system.mem_ctrl.wrQLenPdf::3                        1                       # What write queue length does an incoming req see
system.mem_ctrl.wrQLenPdf::4                        1                       # What write queue length does an incoming req see
system.mem_ctrl.wrQLenPdf::5                        1                       # What write queue length does an incoming req see
system.mem_ctrl.wrQLenPdf::6                        1                       # What write queue length does an incoming req see
system.mem_ctrl.wrQLenPdf::7                        1                       # What write queue length does an incoming req see
system.mem_ctrl.wrQLenPdf::8                        1                       # What write queue length does an incoming req see
system.mem_ctrl.wrQLenPdf::9                        1                       # What write queue length does an incoming req see
system.mem_ctrl.wrQLenPdf::10                       1                       # What write queue length does an incoming req see
system.mem_ctrl.wrQLenPdf::11                       1                       # What write queue length does an incoming req see
system.mem_ctrl.wrQLenPdf::12                       1                       # What write queue length does an incoming req see
system.mem_ctrl.wrQLenPdf::13                       1                       # What write queue length does an incoming req see
system.mem_ctrl.wrQLenPdf::14                       1                       # What write queue length does an incoming req see
system.mem_ctrl.wrQLenPdf::15                      52                       # What write queue length does an incoming req see
system.mem_ctrl.wrQLenPdf::16                      68                       # What write queue length does an incoming req see
system.mem_ctrl.wrQLenPdf::17                     435                       # What write queue length does an incoming req see
system.mem_ctrl.wrQLenPdf::18                     448                       # What write queue length does an incoming req see
system.mem_ctrl.wrQLenPdf::19                     444                       # What write queue length does an incoming req see
system.mem_ctrl.wrQLenPdf::20                     441                       # What write queue length does an incoming req see
system.mem_ctrl.wrQLenPdf::21                     441                       # What write queue length does an incoming req see
system.mem_ctrl.wrQLenPdf::22                     441                       # What write queue length does an incoming req see
system.mem_ctrl.wrQLenPdf::23                     441                       # What write queue length does an incoming req see
system.mem_ctrl.wrQLenPdf::24                     443                       # What write queue length does an incoming req see
system.mem_ctrl.wrQLenPdf::25                     441                       # What write queue length does an incoming req see
system.mem_ctrl.wrQLenPdf::26                     441                       # What write queue length does an incoming req see
system.mem_ctrl.wrQLenPdf::27                     448                       # What write queue length does an incoming req see
system.mem_ctrl.wrQLenPdf::28                     441                       # What write queue length does an incoming req see
system.mem_ctrl.wrQLenPdf::29                     441                       # What write queue length does an incoming req see
system.mem_ctrl.wrQLenPdf::30                     441                       # What write queue length does an incoming req see
system.mem_ctrl.wrQLenPdf::31                     441                       # What write queue length does an incoming req see
system.mem_ctrl.wrQLenPdf::32                     441                       # What write queue length does an incoming req see
system.mem_ctrl.wrQLenPdf::33                       0                       # What write queue length does an incoming req see
system.mem_ctrl.wrQLenPdf::34                       0                       # What write queue length does an incoming req see
system.mem_ctrl.wrQLenPdf::35                       0                       # What write queue length does an incoming req see
system.mem_ctrl.wrQLenPdf::36                       0                       # What write queue length does an incoming req see
system.mem_ctrl.wrQLenPdf::37                       0                       # What write queue length does an incoming req see
system.mem_ctrl.wrQLenPdf::38                       0                       # What write queue length does an incoming req see
system.mem_ctrl.wrQLenPdf::39                       0                       # What write queue length does an incoming req see
system.mem_ctrl.wrQLenPdf::40                       0                       # What write queue length does an incoming req see
system.mem_ctrl.wrQLenPdf::41                       0                       # What write queue length does an incoming req see
system.mem_ctrl.wrQLenPdf::42                       0                       # What write queue length does an incoming req see
system.mem_ctrl.wrQLenPdf::43                       0                       # What write queue length does an incoming req see
system.mem_ctrl.wrQLenPdf::44                       0                       # What write queue length does an incoming req see
system.mem_ctrl.wrQLenPdf::45                       0                       # What write queue length does an incoming req see
system.mem_ctrl.wrQLenPdf::46                       0                       # What write queue length does an incoming req see
system.mem_ctrl.wrQLenPdf::47                       0                       # What write queue length does an incoming req see
system.mem_ctrl.wrQLenPdf::48                       0                       # What write queue length does an incoming req see
system.mem_ctrl.wrQLenPdf::49                       0                       # What write queue length does an incoming req see
system.mem_ctrl.wrQLenPdf::50                       0                       # What write queue length does an incoming req see
system.mem_ctrl.wrQLenPdf::51                       0                       # What write queue length does an incoming req see
system.mem_ctrl.wrQLenPdf::52                       0                       # What write queue length does an incoming req see
system.mem_ctrl.wrQLenPdf::53                       0                       # What write queue length does an incoming req see
system.mem_ctrl.wrQLenPdf::54                       0                       # What write queue length does an incoming req see
system.mem_ctrl.wrQLenPdf::55                       0                       # What write queue length does an incoming req see
system.mem_ctrl.wrQLenPdf::56                       0                       # What write queue length does an incoming req see
system.mem_ctrl.wrQLenPdf::57                       0                       # What write queue length does an incoming req see
system.mem_ctrl.wrQLenPdf::58                       0                       # What write queue length does an incoming req see
system.mem_ctrl.wrQLenPdf::59                       0                       # What write queue length does an incoming req see
system.mem_ctrl.wrQLenPdf::60                       0                       # What write queue length does an incoming req see
system.mem_ctrl.wrQLenPdf::61                       0                       # What write queue length does an incoming req see
system.mem_ctrl.wrQLenPdf::62                       0                       # What write queue length does an incoming req see
system.mem_ctrl.wrQLenPdf::63                       0                       # What write queue length does an incoming req see
system.mem_ctrl.bytesPerActivate::samples         1671                       # Bytes accessed per row activation
system.mem_ctrl.bytesPerActivate::mean     605.338121                       # Bytes accessed per row activation
system.mem_ctrl.bytesPerActivate::gmean    430.987521                       # Bytes accessed per row activation
system.mem_ctrl.bytesPerActivate::stdev    396.763095                       # Bytes accessed per row activation
system.mem_ctrl.bytesPerActivate::0-127           131      7.84%      7.84% # Bytes accessed per row activation
system.mem_ctrl.bytesPerActivate::128-255          325     19.45%     27.29% # Bytes accessed per row activation
system.mem_ctrl.bytesPerActivate::256-383          263     15.74%     43.03% # Bytes accessed per row activation
system.mem_ctrl.bytesPerActivate::384-511           56      3.35%     46.38% # Bytes accessed per row activation
system.mem_ctrl.bytesPerActivate::512-639           67      4.01%     50.39% # Bytes accessed per row activation
system.mem_ctrl.bytesPerActivate::640-767           41      2.45%     52.84% # Bytes accessed per row activation
system.mem_ctrl.bytesPerActivate::768-895           59      3.53%     56.37% # Bytes accessed per row activation
system.mem_ctrl.bytesPerActivate::896-1023           26      1.56%     57.93% # Bytes accessed per row activation
system.mem_ctrl.bytesPerActivate::1024-1151          703     42.07%    100.00% # Bytes accessed per row activation
system.mem_ctrl.bytesPerActivate::total          1671                       # Bytes accessed per row activation
system.mem_ctrl.rdPerTurnAround::samples          441                       # Reads before turning the bus around for writes
system.mem_ctrl.rdPerTurnAround::mean       19.562358                       # Reads before turning the bus around for writes
system.mem_ctrl.rdPerTurnAround::gmean      16.591693                       # Reads before turning the bus around for writes
system.mem_ctrl.rdPerTurnAround::stdev      45.820513                       # Reads before turning the bus around for writes
system.mem_ctrl.rdPerTurnAround::0-31             430     97.51%     97.51% # Reads before turning the bus around for writes
system.mem_ctrl.rdPerTurnAround::32-63              6      1.36%     98.87% # Reads before turning the bus around for writes
system.mem_ctrl.rdPerTurnAround::64-95              1      0.23%     99.09% # Reads before turning the bus around for writes
system.mem_ctrl.rdPerTurnAround::96-127             1      0.23%     99.32% # Reads before turning the bus around for writes
system.mem_ctrl.rdPerTurnAround::128-159            1      0.23%     99.55% # Reads before turning the bus around for writes
system.mem_ctrl.rdPerTurnAround::160-191            1      0.23%     99.77% # Reads before turning the bus around for writes
system.mem_ctrl.rdPerTurnAround::928-959            1      0.23%    100.00% # Reads before turning the bus around for writes
system.mem_ctrl.rdPerTurnAround::total            441                       # Reads before turning the bus around for writes
system.mem_ctrl.wrPerTurnAround::samples          441                       # Writes before turning the bus around for reads
system.mem_ctrl.wrPerTurnAround::mean       16.290249                       # Writes before turning the bus around for reads
system.mem_ctrl.wrPerTurnAround::gmean      16.276254                       # Writes before turning the bus around for reads
system.mem_ctrl.wrPerTurnAround::stdev       0.695518                       # Writes before turning the bus around for reads
system.mem_ctrl.wrPerTurnAround::16               372     84.35%     84.35% # Writes before turning the bus around for reads
system.mem_ctrl.wrPerTurnAround::17                12      2.72%     87.07% # Writes before turning the bus around for reads
system.mem_ctrl.wrPerTurnAround::18                55     12.47%     99.55% # Writes before turning the bus around for reads
system.mem_ctrl.wrPerTurnAround::19                 2      0.45%    100.00% # Writes before turning the bus around for reads
system.mem_ctrl.wrPerTurnAround::total            441                       # Writes before turning the bus around for reads
system.mem_ctrl.bytesReadDRAM                  552320                       # Total number of bytes read from DRAM
system.mem_ctrl.bytesReadWrQ                       64                       # Total number of bytes read from write queue
system.mem_ctrl.bytesWritten                   459776                       # Total number of bytes written to DRAM
system.mem_ctrl.bytesReadSys                   552384                       # Total read bytes from the system interface side
system.mem_ctrl.bytesWrittenSys                462400                       # Total written bytes from the system interface side
system.mem_ctrl.avgRdBW                        153.82                       # Average DRAM read bandwidth in MiByte/s
system.mem_ctrl.avgWrBW                        128.05                       # Average achieved write bandwidth in MiByte/s
system.mem_ctrl.avgRdBWSys                     153.84                       # Average system read bandwidth in MiByte/s
system.mem_ctrl.avgWrBWSys                     128.78                       # Average system write bandwidth in MiByte/s
system.mem_ctrl.peakBW                       12800.00                       # Theoretical peak bandwidth in MiByte/s
system.mem_ctrl.busUtil                          2.20                       # Data bus utilization in percentage
system.mem_ctrl.busUtilRead                      1.20                       # Data bus utilization in percentage for reads
system.mem_ctrl.busUtilWrite                     1.00                       # Data bus utilization in percentage for writes
system.mem_ctrl.totGap                     3590643000                       # Total gap between requests
system.mem_ctrl.avgGap                      226453.27                       # Average gap between requests
system.mem_ctrl.masterReadBytes::.cpu.inst        47424                       # Per-master bytes read from memory
system.mem_ctrl.masterReadBytes::.cpu.data       504896                       # Per-master bytes read from memory
system.mem_ctrl.masterWriteBytes::.writebacks       459776                       # Per-master bytes write to memory
system.mem_ctrl.masterReadRate::.cpu.inst 13207441.551139149815                       # Per-master bytes read from memory rate (Bytes/sec)
system.mem_ctrl.masterReadRate::.cpu.data 140612019.429064452648                       # Per-master bytes read from memory rate (Bytes/sec)
system.mem_ctrl.masterWriteRate::.writebacks 128046234.957332864404                       # Per-master bytes write to memory rate (Bytes/sec)
system.mem_ctrl.masterReadAccesses::.cpu.inst          741                       # Per-master read serviced memory accesses
system.mem_ctrl.masterReadAccesses::.cpu.data         7890                       # Per-master read serviced memory accesses
system.mem_ctrl.masterWriteAccesses::.writebacks         7225                       # Per-master write serviced memory accesses
system.mem_ctrl.masterReadTotalLat::.cpu.inst     18926000                       # Per-master read total memory access latency
system.mem_ctrl.masterReadTotalLat::.cpu.data    217019500                       # Per-master read total memory access latency
system.mem_ctrl.masterWriteTotalLat::.writebacks  80988039250                       # Per-master write total memory access latency
system.mem_ctrl.masterReadAvgLat::.cpu.inst     25541.16                       # Per-master read average memory access latency
system.mem_ctrl.masterReadAvgLat::.cpu.data     27505.64                       # Per-master read average memory access latency
system.mem_ctrl.masterWriteAvgLat::.writebacks  11209417.20                       # Per-master write average memory access latency
system.mem_ctrl.pageHitRate                     89.31                       # Row buffer hit rate, read and write combined
system.mem_ctrl.rank1.actEnergy               7125720                       # Energy for activate commands per rank (pJ)
system.mem_ctrl.rank1.preEnergy               3787410                       # Energy for precharge commands per rank (pJ)
system.mem_ctrl.rank1.readEnergy             33001080                       # Energy for read commands per rank (pJ)
system.mem_ctrl.rank1.writeEnergy            21850920                       # Energy for write commands per rank (pJ)
system.mem_ctrl.rank1.refreshEnergy      283349040.000000                       # Energy for refresh commands per rank (pJ)
system.mem_ctrl.rank1.actBackEnergy        1243352400                       # Energy for active background per rank (pJ)
system.mem_ctrl.rank1.preBackEnergy         331796640                       # Energy for precharge background per rank (pJ)
system.mem_ctrl.rank1.actPowerDownEnergy            0                       # Energy for active power-down per rank (pJ)
system.mem_ctrl.rank1.prePowerDownEnergy            0                       # Energy for precharge power-down per rank (pJ)
system.mem_ctrl.rank1.selfRefreshEnergy             0                       # Energy for self refresh per rank (pJ)
system.mem_ctrl.rank1.totalEnergy          1924263210                       # Total energy per rank (pJ)
system.mem_ctrl.rank1.averagePower         535.901524                       # Core power per rank (mW)
system.mem_ctrl.rank1.totalIdleTime                 0                       # Total Idle time Per DRAM Rank
system.mem_ctrl.rank1.memoryStateTime::IDLE    849717500                       # Time in different power states
system.mem_ctrl.rank1.memoryStateTime::REF    119860000                       # Time in different power states
system.mem_ctrl.rank1.memoryStateTime::SREF            0                       # Time in different power states
system.mem_ctrl.rank1.memoryStateTime::PRE_PDN            0                       # Time in different power states
system.mem_ctrl.rank1.memoryStateTime::ACT   2621125500                       # Time in different power states
system.mem_ctrl.rank1.memoryStateTime::ACT_PDN            0                       # Time in different power states
system.mem_ctrl.rank0.actEnergy               4819500                       # Energy for activate commands per rank (pJ)
system.mem_ctrl.rank0.preEnergy               2554035                       # Energy for precharge commands per rank (pJ)
system.mem_ctrl.rank0.readEnergy             28617120                       # Energy for read commands per rank (pJ)
system.mem_ctrl.rank0.writeEnergy            15649560                       # Energy for write commands per rank (pJ)
system.mem_ctrl.rank0.refreshEnergy      283349040.000000                       # Energy for refresh commands per rank (pJ)
system.mem_ctrl.rank0.actBackEnergy         439734480                       # Energy for active background per rank (pJ)
system.mem_ctrl.rank0.preBackEnergy        1008527520                       # Energy for precharge background per rank (pJ)
system.mem_ctrl.rank0.actPowerDownEnergy            0                       # Energy for active power-down per rank (pJ)
system.mem_ctrl.rank0.prePowerDownEnergy            0                       # Energy for precharge power-down per rank (pJ)
system.mem_ctrl.rank0.selfRefreshEnergy             0                       # Energy for self refresh per rank (pJ)
system.mem_ctrl.rank0.totalEnergy          1783251255                       # Total energy per rank (pJ)
system.mem_ctrl.rank0.averagePower         496.630118                       # Core power per rank (mW)
system.mem_ctrl.rank0.totalIdleTime                 0                       # Total Idle time Per DRAM Rank
system.mem_ctrl.rank0.memoryStateTime::IDLE   2615830000                       # Time in different power states
system.mem_ctrl.rank0.memoryStateTime::REF    119860000                       # Time in different power states
system.mem_ctrl.rank0.memoryStateTime::SREF            0                       # Time in different power states
system.mem_ctrl.rank0.memoryStateTime::PRE_PDN            0                       # Time in different power states
system.mem_ctrl.rank0.memoryStateTime::ACT    855013000                       # Time in different power states
system.mem_ctrl.rank0.memoryStateTime::ACT_PDN            0                       # Time in different power states
system.mem_ctrl.power_state.pwrStateResidencyTicks::UNDEFINED   3590703000                       # Cumulative time (in ticks) in various power states
system.cache_medium.blocked_cycles::no_mshrs            0                       # number of cycles access was blocked
system.cache_medium.blocked_cycles::no_targets            0                       # number of cycles access was blocked
system.cache_medium.blocked::no_mshrs               0                       # number of cycles access was blocked
system.cache_medium.blocked::no_targets             0                       # number of cycles access was blocked
system.cache_medium.avg_blocked_cycles::no_mshrs          nan                       # average number of cycles each access was blocked
system.cache_medium.avg_blocked_cycles::no_targets          nan                       # average number of cycles each access was blocked
system.cache_medium.replacements                    0                       # number of replacements
system.cache_medium.power_state.pwrStateResidencyTicks::UNDEFINED   3590703000                       # Cumulative time (in ticks) in various power states
system.cache_medium.tags.tagsinuse                  0                       # Cycle average of tags in use
system.cache_medium.tags.total_refs                 0                       # Total number of references to valid blocks.
system.cache_medium.tags.sampled_refs               0                       # Sample count of references to valid blocks.
system.cache_medium.tags.avg_refs                 nan                       # Average number of references to valid blocks.
system.cache_medium.tags.warmup_cycle               0                       # Cycle when the warmup percentage was hit.
system.cache_medium.tags.tag_accesses               0                       # Number of tag accesses
system.cache_medium.tags.data_accesses              0                       # Number of data accesses
system.cache_medium.tags.power_state.pwrStateResidencyTicks::UNDEFINED   3590703000                       # Cumulative time (in ticks) in various power states
system.clk_domain.clock                          1000                       # Clock period in ticks
system.clk_domain.voltage_domain.voltage            1                       # Voltage in Volts
system.dcache.demand_hits::.cpu.data           153687                       # number of demand (read+write) hits
system.dcache.demand_hits::total               153687                       # number of demand (read+write) hits
system.dcache.overall_hits::.cpu.data          153687                       # number of overall hits
system.dcache.overall_hits::total              153687                       # number of overall hits
system.dcache.demand_misses::.cpu.data           7827                       # number of demand (read+write) misses
system.dcache.demand_misses::total               7827                       # number of demand (read+write) misses
system.dcache.overall_misses::.cpu.data          7925                       # number of overall misses
system.dcache.overall_misses::total              7925                       # number of overall misses
system.dcache.demand_miss_latency::.cpu.data    575466000                       # number of demand (read+write) miss cycles
system.dcache.demand_miss_latency::total    575466000                       # number of demand (read+write) miss cycles
system.dcache.overall_miss_latency::.cpu.data    582676000                       # number of overall miss cycles
system.dcache.overall_miss_latency::total    582676000                       # number of overall miss cycles
system.dcache.demand_accesses::.cpu.data       161514                       # number of demand (read+write) accesses
system.dcache.demand_accesses::total           161514                       # number of demand (read+write) accesses
system.dcache.overall_accesses::.cpu.data       161612                       # number of overall (read+write) accesses
system.dcache.overall_accesses::total          161612                       # number of overall (read+write) accesses
system.dcache.demand_miss_rate::.cpu.data     0.048460                       # miss rate for demand accesses
system.dcache.demand_miss_rate::total        0.048460                       # miss rate for demand accesses
system.dcache.overall_miss_rate::.cpu.data     0.049037                       # miss rate for overall accesses
system.dcache.overall_miss_rate::total       0.049037                       # miss rate for overall accesses
system.dcache.demand_avg_miss_latency::.cpu.data 73523.188961                       # average overall miss latency
system.dcache.demand_avg_miss_latency::total 73523.188961                       # average overall miss latency
system.dcache.overall_avg_miss_latency::.cpu.data 73523.785489                       # average overall miss latency
system.dcache.overall_avg_miss_latency::total 73523.785489                       # average overall miss latency
system.dcache.blocked_cycles::no_mshrs              0                       # number of cycles access was blocked
system.dcache.blocked_cycles::no_targets            0                       # number of cycles access was blocked
system.dcache.blocked::no_mshrs                     0                       # number of cycles access was blocked
system.dcache.blocked::no_targets                   0                       # number of cycles access was blocked
system.dcache.avg_blocked_cycles::no_mshrs          nan                       # average number of cycles each access was blocked
system.dcache.avg_blocked_cycles::no_targets          nan                       # average number of cycles each access was blocked
system.dcache.writebacks::.writebacks            7484                       # number of writebacks
system.dcache.writebacks::total                  7484                       # number of writebacks
system.dcache.demand_mshr_misses::.cpu.data         7827                       # number of demand (read+write) MSHR misses
system.dcache.demand_mshr_misses::total          7827                       # number of demand (read+write) MSHR misses
system.dcache.overall_mshr_misses::.cpu.data         7925                       # number of overall MSHR misses
system.dcache.overall_mshr_misses::total         7925                       # number of overall MSHR misses
system.dcache.demand_mshr_miss_latency::.cpu.data    559814000                       # number of demand (read+write) MSHR miss cycles
system.dcache.demand_mshr_miss_latency::total    559814000                       # number of demand (read+write) MSHR miss cycles
system.dcache.overall_mshr_miss_latency::.cpu.data    566828000                       # number of overall MSHR miss cycles
system.dcache.overall_mshr_miss_latency::total    566828000                       # number of overall MSHR miss cycles
system.dcache.demand_mshr_miss_rate::.cpu.data     0.048460                       # mshr miss rate for demand accesses
system.dcache.demand_mshr_miss_rate::total     0.048460                       # mshr miss rate for demand accesses
system.dcache.overall_mshr_miss_rate::.cpu.data     0.049037                       # mshr miss rate for overall accesses
system.dcache.overall_mshr_miss_rate::total     0.049037                       # mshr miss rate for overall accesses
system.dcache.demand_avg_mshr_miss_latency::.cpu.data 71523.444487                       # average overall mshr miss latency
system.dcache.demand_avg_mshr_miss_latency::total 71523.444487                       # average overall mshr miss latency
system.dcache.overall_avg_mshr_miss_latency::.cpu.data 71524.037855                       # average overall mshr miss latency
system.dcache.overall_avg_mshr_miss_latency::total 71524.037855                       # average overall mshr miss latency
system.dcache.replacements                       7668                       # number of replacements
system.dcache.ReadReq_hits::.cpu.data           27813                       # number of ReadReq hits
system.dcache.ReadReq_hits::total               27813                       # number of ReadReq hits
system.dcache.ReadReq_misses::.cpu.data           227                       # number of ReadReq misses
system.dcache.ReadReq_misses::total               227                       # number of ReadReq misses
system.dcache.ReadReq_miss_latency::.cpu.data     15840000                       # number of ReadReq miss cycles
system.dcache.ReadReq_miss_latency::total     15840000                       # number of ReadReq miss cycles
system.dcache.ReadReq_accesses::.cpu.data        28040                       # number of ReadReq accesses(hits+misses)
system.dcache.ReadReq_accesses::total           28040                       # number of ReadReq accesses(hits+misses)
system.dcache.ReadReq_miss_rate::.cpu.data     0.008096                       # miss rate for ReadReq accesses
system.dcache.ReadReq_miss_rate::total       0.008096                       # miss rate for ReadReq accesses
system.dcache.ReadReq_avg_miss_latency::.cpu.data 69779.735683                       # average ReadReq miss latency
system.dcache.ReadReq_avg_miss_latency::total 69779.735683                       # average ReadReq miss latency
system.dcache.ReadReq_mshr_misses::.cpu.data          227                       # number of ReadReq MSHR misses
system.dcache.ReadReq_mshr_misses::total          227                       # number of ReadReq MSHR misses
system.dcache.ReadReq_mshr_miss_latency::.cpu.data     15386000                       # number of ReadReq MSHR miss cycles
system.dcache.ReadReq_mshr_miss_latency::total     15386000                       # number of ReadReq MSHR miss cycles
system.dcache.ReadReq_mshr_miss_rate::.cpu.data     0.008096                       # mshr miss rate for ReadReq accesses
system.dcache.ReadReq_mshr_miss_rate::total     0.008096                       # mshr miss rate for ReadReq accesses
system.dcache.ReadReq_avg_mshr_miss_latency::.cpu.data 67779.735683                       # average ReadReq mshr miss latency
system.dcache.ReadReq_avg_mshr_miss_latency::total 67779.735683                       # average ReadReq mshr miss latency
system.dcache.WriteReq_hits::.cpu.data         125874                       # number of WriteReq hits
system.dcache.WriteReq_hits::total             125874                       # number of WriteReq hits
system.dcache.WriteReq_misses::.cpu.data         7600                       # number of WriteReq misses
system.dcache.WriteReq_misses::total             7600                       # number of WriteReq misses
system.dcache.WriteReq_miss_latency::.cpu.data    559626000                       # number of WriteReq miss cycles
system.dcache.WriteReq_miss_latency::total    559626000                       # number of WriteReq miss cycles
system.dcache.WriteReq_accesses::.cpu.data       133474                       # number of WriteReq accesses(hits+misses)
system.dcache.WriteReq_accesses::total         133474                       # number of WriteReq accesses(hits+misses)
system.dcache.WriteReq_miss_rate::.cpu.data     0.056940                       # miss rate for WriteReq accesses
system.dcache.WriteReq_miss_rate::total      0.056940                       # miss rate for WriteReq accesses
system.dcache.WriteReq_avg_miss_latency::.cpu.data        73635                       # average WriteReq miss latency
system.dcache.WriteReq_avg_miss_latency::total        73635                       # average WriteReq miss latency
system.dcache.WriteReq_mshr_misses::.cpu.data         7600                       # number of WriteReq MSHR misses
system.dcache.WriteReq_mshr_misses::total         7600                       # number of WriteReq MSHR misses
system.dcache.WriteReq_mshr_miss_latency::.cpu.data    544428000                       # number of WriteReq MSHR miss cycles
system.dcache.WriteReq_mshr_miss_latency::total    544428000                       # number of WriteReq MSHR miss cycles
system.dcache.WriteReq_mshr_miss_rate::.cpu.data     0.056940                       # mshr miss rate for WriteReq accesses
system.dcache.WriteReq_mshr_miss_rate::total     0.056940                       # mshr miss rate for WriteReq accesses
system.dcache.WriteReq_avg_mshr_miss_latency::.cpu.data 71635.263158                       # average WriteReq mshr miss latency
system.dcache.WriteReq_avg_mshr_miss_latency::total 71635.263158                       # average WriteReq mshr miss latency
system.dcache.SoftPFReq_misses::.cpu.data           98                       # number of SoftPFReq misses
system.dcache.SoftPFReq_misses::total              98                       # number of SoftPFReq misses
system.dcache.SoftPFReq_miss_latency::.cpu.data      7210000                       # number of SoftPFReq miss cycles
system.dcache.SoftPFReq_miss_latency::total      7210000                       # number of SoftPFReq miss cycles
system.dcache.SoftPFReq_accesses::.cpu.data           98                       # number of SoftPFReq accesses(hits+misses)
system.dcache.SoftPFReq_accesses::total            98                       # number of SoftPFReq accesses(hits+misses)
system.dcache.SoftPFReq_miss_rate::.cpu.data            1                       # miss rate for SoftPFReq accesses
system.dcache.SoftPFReq_miss_rate::total            1                       # miss rate for SoftPFReq accesses
system.dcache.SoftPFReq_avg_miss_latency::.cpu.data 73571.428571                       # average SoftPFReq miss latency
system.dcache.SoftPFReq_avg_miss_latency::total 73571.428571                       # average SoftPFReq miss latency
system.dcache.SoftPFReq_mshr_misses::.cpu.data           98                       # number of SoftPFReq MSHR misses
system.dcache.SoftPFReq_mshr_misses::total           98                       # number of SoftPFReq MSHR misses
system.dcache.SoftPFReq_mshr_miss_latency::.cpu.data      7014000                       # number of SoftPFReq MSHR miss cycles
system.dcache.SoftPFReq_mshr_miss_latency::total      7014000                       # number of SoftPFReq MSHR miss cycles
system.dcache.SoftPFReq_mshr_miss_rate::.cpu.data            1                       # mshr miss rate for SoftPFReq accesses
system.dcache.SoftPFReq_mshr_miss_rate::total            1                       # mshr miss rate for SoftPFReq accesses
system.dcache.SoftPFReq_avg_mshr_miss_latency::.cpu.data 71571.428571                       # average SoftPFReq mshr miss latency
system.dcache.SoftPFReq_avg_mshr_miss_latency::total 71571.428571                       # average SoftPFReq mshr miss latency
system.dcache.power_state.pwrStateResidencyTicks::UNDEFINED   3590703000                       # Cumulative time (in ticks) in various power states
system.dcache.tags.tagsinuse               247.032321                       # Cycle average of tags in use
system.dcache.tags.total_refs                  159563                       # Total number of references to valid blocks.
system.dcache.tags.sampled_refs                  7668                       # Sample count of references to valid blocks.
system.dcache.tags.avg_refs                 20.808946                       # Average number of references to valid blocks.
system.dcache.tags.warmup_cycle                181000                       # Cycle when the warmup percentage was hit.
system.dcache.tags.occ_blocks::.cpu.data   247.032321                       # Average occupied blocks per requestor
system.dcache.tags.occ_percent::.cpu.data     0.964970                       # Average percentage of cache occupancy
system.dcache.tags.occ_percent::total        0.964970                       # Average percentage of cache occupancy
system.dcache.tags.occ_task_id_blocks::1024          256                       # Occupied blocks per task id
system.dcache.tags.age_task_id_blocks_1024::0           92                       # Occupied blocks per task id
system.dcache.tags.age_task_id_blocks_1024::1          164                       # Occupied blocks per task id
system.dcache.tags.occ_task_id_percent::1024            1                       # Percentage of cache occupancy per task id
system.dcache.tags.tag_accesses                169536                       # Number of tag accesses
system.dcache.tags.data_accesses               169536                       # Number of data accesses
system.dcache.tags.power_state.pwrStateResidencyTicks::UNDEFINED   3590703000                       # Cumulative time (in ticks) in various power states
system.cache_large.blocked_cycles::no_mshrs            0                       # number of cycles access was blocked
system.cache_large.blocked_cycles::no_targets            0                       # number of cycles access was blocked
system.cache_large.blocked::no_mshrs                0                       # number of cycles access was blocked
system.cache_large.blocked::no_targets              0                       # number of cycles access was blocked
system.cache_large.avg_blocked_cycles::no_mshrs          nan                       # average number of cycles each access was blocked
system.cache_large.avg_blocked_cycles::no_targets          nan                       # average number of cycles each access was blocked
system.cache_large.replacements                     0                       # number of replacements
system.cache_large.power_state.pwrStateResidencyTicks::UNDEFINED   3590703000                       # Cumulative time (in ticks) in various power states
system.cache_large.tags.tagsinuse                   0                       # Cycle average of tags in use
system.cache_large.tags.total_refs                  0                       # Total number of references to valid blocks.
system.cache_large.tags.sampled_refs                0                       # Sample count of references to valid blocks.
system.cache_large.tags.avg_refs                  nan                       # Average number of references to valid blocks.
system.cache_large.tags.warmup_cycle                0                       # Cycle when the warmup percentage was hit.
system.cache_large.tags.tag_accesses                0                       # Number of tag accesses
system.cache_large.tags.data_accesses               0                       # Number of data accesses
system.cache_large.tags.power_state.pwrStateResidencyTicks::UNDEFINED   3590703000                       # Cumulative time (in ticks) in various power states
system.l2cache.demand_hits::.cpu.inst              12                       # number of demand (read+write) hits
system.l2cache.demand_hits::.cpu.data              34                       # number of demand (read+write) hits
system.l2cache.demand_hits::total                  46                       # number of demand (read+write) hits
system.l2cache.overall_hits::.cpu.inst             12                       # number of overall hits
system.l2cache.overall_hits::.cpu.data             34                       # number of overall hits
system.l2cache.overall_hits::total                 46                       # number of overall hits
[...]
system.dcache.tags.occ_percent::total        0.998086                       # Average percentage of cache occupancy
system.dcache.tags.occ_task_id_blocks::1024          256                       # Occupied blocks per task id
system.dcache.tags.age_task_id_blocks_1024::0           89                       # Occupied blocks per task id
system.dcache.tags.age_task_id_blocks_1024::1          167                       # Occupied blocks per task id
system.dcache.tags.occ_task_id_percent::1024            1                       # Percentage of cache occupancy per task id
system.dcache.tags.tag_accesses               5312393                       # Number of tag accesses
system.dcache.tags.data_accesses              5312393                       # Number of data accesses
system.dcache.tags.power_state.pwrStateResidencyTicks::UNDEFINED  65715110000                       # Cumulative time (in ticks) in various power states
system.cache_large.blocked_cycles::no_mshrs            0                       # number of cycles access was blocked
system.cache_large.blocked_cycles::no_targets            0                       # number of cycles access was blocked
system.cache_large.blocked::no_mshrs                0                       # number of cycles access was blocked
system.cache_large.blocked::no_targets              0                       # number of cycles access was blocked
system.cache_large.avg_blocked_cycles::no_mshrs          nan                       # average number of cycles each access was blocked
system.cache_large.avg_blocked_cycles::no_targets          nan                       # average number of cycles each access was blocked
system.cache_large.replacements                     0                       # number of replacements
system.cache_large.power_state.pwrStateResidencyTicks::UNDEFINED  65715110000                       # Cumulative time (in ticks) in various power states
system.cache_large.tags.tagsinuse                   0                       # Cycle average of tags in use
system.cache_large.tags.total_refs                  0                       # Total number of references to valid blocks.
system.cache_large.tags.sampled_refs                0                       # Sample count of references to valid blocks.
system.cache_large.tags.avg_refs                  nan                       # Average number of references to valid blocks.
system.cache_large.tags.warmup_cycle                0                       # Cycle when the warmup percentage was hit.
system.cache_large.tags.tag_accesses                0                       # Number of tag accesses
system.cache_large.tags.data_accesses               0                       # Number of data accesses
system.cache_large.tags.power_state.pwrStateResidencyTicks::UNDEFINED  65715110000                       # Cumulative time (in ticks) in various power states
system.l2cache.demand_hits::.cpu.inst              12                       # number of demand (read+write) hits
system.l2cache.demand_hits::.cpu.data              34                       # number of demand (read+write) hits
system.l2cache.demand_hits::total                  46                       # number of demand (read+write) hits
system.l2cache.overall_hits::.cpu.inst             12                       # number of overall hits
system.l2cache.overall_hits::.cpu.data             34                       # number of overall hits
system.l2cache.overall_hits::total                 46                       # number of overall hits
system.l2cache.demand_misses::.cpu.inst           741                       # number of demand (read+write) misses
system.l2cache.demand_misses::.cpu.data        579319                       # number of demand (read+write) misses
system.l2cache.demand_misses::total            580060                       # number of demand (read+write) misses
system.l2cache.overall_misses::.cpu.inst          741                       # number of overall misses
system.l2cache.overall_misses::.cpu.data       579319                       # number of overall misses
system.l2cache.overall_misses::total           580060                       # number of overall misses
system.l2cache.demand_miss_latency::.cpu.inst     48811000                       # number of demand (read+write) miss cycles
system.l2cache.demand_miss_latency::.cpu.data  39784228000                       # number of demand (read+write) miss cycles
system.l2cache.demand_miss_latency::total  39833039000                       # number of demand (read+write) miss cycles
system.l2cache.overall_miss_latency::.cpu.inst     48811000                       # number of overall miss cycles
system.l2cache.overall_miss_latency::.cpu.data  39784228000                       # number of overall miss cycles
system.l2cache.overall_miss_latency::total  39833039000                       # number of overall miss cycles
system.l2cache.demand_accesses::.cpu.inst          753                       # number of demand (read+write) accesses
system.l2cache.demand_accesses::.cpu.data       579353                       # number of demand (read+write) accesses
system.l2cache.demand_accesses::total          580106                       # number of demand (read+write) accesses
system.l2cache.overall_accesses::.cpu.inst          753                       # number of overall (read+write) accesses
system.l2cache.overall_accesses::.cpu.data       579353                       # number of overall (read+write) accesses
system.l2cache.overall_accesses::total         580106                       # number of overall (read+write) accesses
system.l2cache.demand_miss_rate::.cpu.inst     0.984064                       # miss rate for demand accesses
system.l2cache.demand_miss_rate::.cpu.data     0.999941                       # miss rate for demand accesses
system.l2cache.demand_miss_rate::total       0.999921                       # miss rate for demand accesses
system.l2cache.overall_miss_rate::.cpu.inst     0.984064                       # miss rate for overall accesses
system.l2cache.overall_miss_rate::.cpu.data     0.999941                       # miss rate for overall accesses
system.l2cache.overall_miss_rate::total      0.999921                       # miss rate for overall accesses
system.l2cache.demand_avg_miss_latency::.cpu.inst 65871.794872                       # average overall miss latency
system.l2cache.demand_avg_miss_latency::.cpu.data 68674.129452                       # average overall miss latency
system.l2cache.demand_avg_miss_latency::total 68670.549598                       # average overall miss latency
system.l2cache.overall_avg_miss_latency::.cpu.inst 65871.794872                       # average overall miss latency
system.l2cache.overall_avg_miss_latency::.cpu.data 68674.129452                       # average overall miss latency
system.l2cache.overall_avg_miss_latency::total 68670.549598                       # average overall miss latency
system.l2cache.blocked_cycles::no_mshrs             0                       # number of cycles access was blocked
system.l2cache.blocked_cycles::no_targets            0                       # number of cycles access was blocked
system.l2cache.blocked::no_mshrs                    0                       # number of cycles access was blocked
system.l2cache.blocked::no_targets                  0                       # number of cycles access was blocked
system.l2cache.avg_blocked_cycles::no_mshrs          nan                       # average number of cycles each access was blocked
system.l2cache.avg_blocked_cycles::no_targets          nan                       # average number of cycles each access was blocked
system.l2cache.writebacks::.writebacks         578654                       # number of writebacks
system.l2cache.writebacks::total               578654                       # number of writebacks
system.l2cache.demand_mshr_misses::.cpu.inst          741                       # number of demand (read+write) MSHR misses
system.l2cache.demand_mshr_misses::.cpu.data       579319                       # number of demand (read+write) MSHR misses
system.l2cache.demand_mshr_misses::total       580060                       # number of demand (read+write) MSHR misses
system.l2cache.overall_mshr_misses::.cpu.inst          741                       # number of overall MSHR misses
system.l2cache.overall_mshr_misses::.cpu.data       579319                       # number of overall MSHR misses
system.l2cache.overall_mshr_misses::total       580060                       # number of overall MSHR misses
system.l2cache.demand_mshr_miss_latency::.cpu.inst     47329000                       # number of demand (read+write) MSHR miss cycles
system.l2cache.demand_mshr_miss_latency::.cpu.data  38625590000                       # number of demand (read+write) MSHR miss cycles
system.l2cache.demand_mshr_miss_latency::total  38672919000                       # number of demand (read+write) MSHR miss cycles
system.l2cache.overall_mshr_miss_latency::.cpu.inst     47329000                       # number of overall MSHR miss cycles
system.l2cache.overall_mshr_miss_latency::.cpu.data  38625590000                       # number of overall MSHR miss cycles
system.l2cache.overall_mshr_miss_latency::total  38672919000                       # number of overall MSHR miss cycles
system.l2cache.demand_mshr_miss_rate::.cpu.inst     0.984064                       # mshr miss rate for demand accesses
system.l2cache.demand_mshr_miss_rate::.cpu.data     0.999941                       # mshr miss rate for demand accesses
system.l2cache.demand_mshr_miss_rate::total     0.999921                       # mshr miss rate for demand accesses
system.l2cache.overall_mshr_miss_rate::.cpu.inst     0.984064                       # mshr miss rate for overall accesses
system.l2cache.overall_mshr_miss_rate::.cpu.data     0.999941                       # mshr miss rate for overall accesses
system.l2cache.overall_mshr_miss_rate::total     0.999921                       # mshr miss rate for overall accesses
system.l2cache.demand_avg_mshr_miss_latency::.cpu.inst 63871.794872                       # average overall mshr miss latency
system.l2cache.demand_avg_mshr_miss_latency::.cpu.data 66674.129452                       # average overall mshr miss latency
system.l2cache.demand_avg_mshr_miss_latency::total 66670.549598                       # average overall mshr miss latency
system.l2cache.overall_avg_mshr_miss_latency::.cpu.inst 63871.794872                       # average overall mshr miss latency
system.l2cache.overall_avg_mshr_miss_latency::.cpu.data 66674.129452                       # average overall mshr miss latency
system.l2cache.overall_avg_mshr_miss_latency::total 66670.549598                       # average overall mshr miss latency
system.l2cache.replacements                    580376                       # number of replacements
system.l2cache.ReadReq_hits::.cpu.inst             12                       # number of ReadReq hits
system.l2cache.ReadReq_hits::.cpu.data             34                       # number of ReadReq hits
system.l2cache.ReadReq_hits::total                 46                       # number of ReadReq hits
system.l2cache.ReadReq_misses::.cpu.inst          741                       # number of ReadReq misses
system.l2cache.ReadReq_misses::.cpu.data       579319                       # number of ReadReq misses
system.l2cache.ReadReq_misses::total           580060                       # number of ReadReq misses
system.l2cache.ReadReq_miss_latency::.cpu.inst     48811000                       # number of ReadReq miss cycles
system.l2cache.ReadReq_miss_latency::.cpu.data  39784228000                       # number of ReadReq miss cycles
system.l2cache.ReadReq_miss_latency::total  39833039000                       # number of ReadReq miss cycles
system.l2cache.ReadReq_accesses::.cpu.inst          753                       # number of ReadReq accesses(hits+misses)
system.l2cache.ReadReq_accesses::.cpu.data       579353                       # number of ReadReq accesses(hits+misses)
system.l2cache.ReadReq_accesses::total         580106                       # number of ReadReq accesses(hits+misses)
system.l2cache.ReadReq_miss_rate::.cpu.inst     0.984064                       # miss rate for ReadReq accesses
system.l2cache.ReadReq_miss_rate::.cpu.data     0.999941                       # miss rate for ReadReq accesses
system.l2cache.ReadReq_miss_rate::total      0.999921                       # miss rate for ReadReq accesses
system.l2cache.ReadReq_avg_miss_latency::.cpu.inst 65871.794872                       # average ReadReq miss latency
system.l2cache.ReadReq_avg_miss_latency::.cpu.data 68674.129452                       # average ReadReq miss latency
system.l2cache.ReadReq_avg_miss_latency::total 68670.549598                       # average ReadReq miss latency
system.l2cache.ReadReq_mshr_misses::.cpu.inst          741                       # number of ReadReq MSHR misses
system.l2cache.ReadReq_mshr_misses::.cpu.data       579319                       # number of ReadReq MSHR misses
system.l2cache.ReadReq_mshr_misses::total       580060                       # number of ReadReq MSHR misses
system.l2cache.ReadReq_mshr_miss_latency::.cpu.inst     47329000                       # number of ReadReq MSHR miss cycles
system.l2cache.ReadReq_mshr_miss_latency::.cpu.data  38625590000                       # number of ReadReq MSHR miss cycles
system.l2cache.ReadReq_mshr_miss_latency::total  38672919000                       # number of ReadReq MSHR miss cycles
system.l2cache.ReadReq_mshr_miss_rate::.cpu.inst     0.984064                       # mshr miss rate for ReadReq accesses
system.l2cache.ReadReq_mshr_miss_rate::.cpu.data     0.999941                       # mshr miss rate for ReadReq accesses
system.l2cache.ReadReq_mshr_miss_rate::total     0.999921                       # mshr miss rate for ReadReq accesses
system.l2cache.ReadReq_avg_mshr_miss_latency::.cpu.inst 63871.794872                       # average ReadReq mshr miss latency
system.l2cache.ReadReq_avg_mshr_miss_latency::.cpu.data 66674.129452                       # average ReadReq mshr miss latency
system.l2cache.ReadReq_avg_mshr_miss_latency::total 66670.549598                       # average ReadReq mshr miss latency
system.l2cache.WritebackDirty_hits::.writebacks       578913                       # number of WritebackDirty hits
system.l2cache.WritebackDirty_hits::total       578913                       # number of WritebackDirty hits
system.l2cache.WritebackDirty_accesses::.writebacks       578913                       # number of WritebackDirty accesses(hits+misses)
system.l2cache.WritebackDirty_accesses::total       578913                       # number of WritebackDirty accesses(hits+misses)
system.l2cache.power_state.pwrStateResidencyTicks::UNDEFINED  65715110000                       # Cumulative time (in ticks) in various power states
system.l2cache.tags.tagsinuse              510.473186                       # Cycle average of tags in use
system.l2cache.tags.total_refs                1159019                       # Total number of references to valid blocks.
system.l2cache.tags.sampled_refs               580888                       # Sample count of references to valid blocks.
system.l2cache.tags.avg_refs                 1.995254                       # Average number of references to valid blocks.
system.l2cache.tags.warmup_cycle                76000                       # Cycle when the warmup percentage was hit.
system.l2cache.tags.occ_blocks::.writebacks     2.790791                       # Average occupied blocks per requestor
system.l2cache.tags.occ_blocks::.cpu.inst     2.649494                       # Average occupied blocks per requestor
system.l2cache.tags.occ_blocks::.cpu.data   505.032901                       # Average occupied blocks per requestor
system.l2cache.tags.occ_percent::.writebacks     0.005451                       # Average percentage of cache occupancy
system.l2cache.tags.occ_percent::.cpu.inst     0.005175                       # Average percentage of cache occupancy
system.l2cache.tags.occ_percent::.cpu.data     0.986392                       # Average percentage of cache occupancy
system.l2cache.tags.occ_percent::total       0.997018                       # Average percentage of cache occupancy
system.l2cache.tags.occ_task_id_blocks::1024          512                       # Occupied blocks per task id
system.l2cache.tags.age_task_id_blocks_1024::0           89                       # Occupied blocks per task id
system.l2cache.tags.age_task_id_blocks_1024::1          423                       # Occupied blocks per task id
system.l2cache.tags.occ_task_id_percent::1024            1                       # Percentage of cache occupancy per task id
system.l2cache.tags.tag_accesses              1739907                       # Number of tag accesses
system.l2cache.tags.data_accesses             1739907                       # Number of data accesses
system.l2cache.tags.power_state.pwrStateResidencyTicks::UNDEFINED  65715110000                       # Cumulative time (in ticks) in various power states
system.l2bar.trans_dist::ReadReq               580106                       # Transaction distribution
system.l2bar.trans_dist::ReadResp              580106                       # Transaction distribution
system.l2bar.trans_dist::WritebackDirty        578913                       # Transaction distribution
system.l2bar.pkt_count_system.dcache.mem_side::system.l2cache.cpu_side      1737619                       # Packet count per connected master and slave (bytes)
system.l2bar.pkt_count_system.icache.mem_side::system.l2cache.cpu_side         1506                       # Packet count per connected master and slave (bytes)
system.l2bar.pkt_count::total                 1739125                       # Packet count per connected master and slave (bytes)
system.l2bar.pkt_size_system.dcache.mem_side::system.l2cache.cpu_side     74129024                       # Cumulative packet size per connected master and slave (bytes)
system.l2bar.pkt_size_system.icache.mem_side::system.l2cache.cpu_side        48192                       # Cumulative packet size per connected master and slave (bytes)
system.l2bar.pkt_size::total                 74177216                       # Cumulative packet size per connected master and slave (bytes)
system.l2bar.respLayer1.occupancy             3765000                       # Layer occupancy (ticks)
system.l2bar.respLayer1.utilization               0.0                       # Layer utilization (%)
system.l2bar.reqLayer0.occupancy           3474671000                       # Layer occupancy (ticks)
system.l2bar.reqLayer0.utilization                5.3                       # Layer utilization (%)
system.l2bar.respLayer0.occupancy          2896765000                       # Layer occupancy (ticks)
system.l2bar.respLayer0.utilization               4.4                       # Layer utilization (%)
system.l2bar.power_state.pwrStateResidencyTicks::UNDEFINED  65715110000                       # Cumulative time (in ticks) in various power states
system.cpu.dtb.walker.power_state.pwrStateResidencyTicks::UNDEFINED  65715110000                       # Cumulative time (in ticks) in various power states
system.cpu.interrupts.clk_domain.clock          16000                       # Clock period in ticks
system.cpu.itb.walker.power_state.pwrStateResidencyTicks::UNDEFINED  65715110000                       # Cumulative time (in ticks) in various power states
system.cpu.power_state.numTransitions               1                       # Number of power state transitions
system.cpu.power_state.pwrStateResidencyTicks::ON  65715110000                       # Cumulative time (in ticks) in various power states

---------- End Simulation Statistics   ----------
