
---------- Begin Simulation Statistics ----------
final_tick                               300676057000                       # Number of ticks from beginning of simulation (restored from checkpoints and never reset)
host_inst_rate                                 178381                       # Simulator instruction rate (inst/s)
host_mem_usage                                 679140                       # Number of bytes of host memory used
host_op_rate                                   210322                       # Simulator op (including micro ops) rate (op/s)
host_seconds                                    16.82                       # Real time elapsed on the host
host_tick_rate                            17878115326                       # Simulator tick rate (ticks/s)
sim_freq                                 1000000000000                       # Frequency of simulated ticks
sim_insts                                     3000000                       # Number of instructions simulated
sim_ops                                       3537218                       # Number of ops (including micro ops) simulated
sim_seconds                                  0.300676                       # Number of seconds simulated
sim_ticks                                300676057000                       # Number of ticks simulated
system.cachebus.snoop_filter.hit_multi_requests            0                       # Number of requests hitting in the snoop filter with multiple (>1) holders of the requested data.
system.cachebus.snoop_filter.hit_multi_snoops            0                       # Number of snoops hitting in the snoop filter with multiple (>1) holders of the requested data.
system.cachebus.snoop_filter.hit_single_requests            0                       # Number of requests hitting in the snoop filter with a single holder of the requested data.
system.cachebus.snoop_filter.hit_single_snoops            0                       # Number of snoops hitting in the snoop filter with a single holder of the requested data.
system.cachebus.snoop_filter.tot_requests            0                       # Total number of requests made to the snoop filter.
system.cachebus.snoop_filter.tot_snoops             0                       # Total number of snoops made to the snoop filter.
system.cpu.Branches                            134242                       # Number of branches fetched
system.cpu.committedInsts                     3000000                       # Number of instructions committed
system.cpu.committedOps                       3537218                       # Number of ops (including micro ops) committed
system.cpu.dtb.rdAccesses                        4335                       # TLB accesses on read requests
system.cpu.dtb.rdMisses                            16                       # TLB misses on read requests
system.cpu.dtb.wrAccesses                     2600586                       # TLB accesses on write requests
system.cpu.dtb.wrMisses                         10141                       # TLB misses on write requests
system.cpu.idle_fraction                            0                       # Percentage of idle cycles
system.cpu.itb.rdAccesses                           0                       # TLB accesses on read requests
system.cpu.itb.rdMisses                             0                       # TLB misses on read requests
system.cpu.itb.wrAccesses                     4700894                       # TLB accesses on write requests
system.cpu.itb.wrMisses                            47                       # TLB misses on write requests
system.cpu.not_idle_fraction                        1                       # Percentage of non-idle cycles
system.cpu.numCycles                        300676057                       # number of cpu cycles simulated
system.cpu.numWorkItemsCompleted                    0                       # number of work items this cpu completed
system.cpu.numWorkItemsStarted                      0                       # number of work items this cpu started
system.cpu.num_busy_cycles                  300676057                       # Number of busy cycles
system.cpu.num_cc_register_reads               670691                       # number of times the CC registers were read
system.cpu.num_cc_register_writes              529638                       # number of times the CC registers were written
system.cpu.num_conditional_control_insts       133243                       # number of instructions that are conditional controls
system.cpu.num_fp_alu_accesses                2463814                       # Number of float alu accesses
system.cpu.num_fp_insts                       2463814                       # number of float instructions
system.cpu.num_fp_register_reads              2464325                       # number of times the floating registers were read
system.cpu.num_fp_register_writes                 609                       # number of times the floating registers were written
system.cpu.num_func_calls                         651                       # number of times a function call or return occured
system.cpu.num_idle_cycles                          0                       # Number of idle cycles
system.cpu.num_int_alu_accesses               3541567                       # Number of integer alu accesses
system.cpu.num_int_insts                      3541567                       # number of integer instructions
system.cpu.num_int_register_reads             9035523                       # number of times the integer registers were read
system.cpu.num_int_register_writes             806926                       # number of times the integer registers were written
system.cpu.num_load_insts                        4320                       # Number of load instructions
system.cpu.num_mem_refs                       2604906                       # number of memory refs
system.cpu.num_store_insts                    2600586                       # Number of store instructions
system.cpu.num_vec_alu_accesses                     0                       # Number of vector alu accesses
system.cpu.num_vec_insts                            0                       # number of vector instructions
system.cpu.num_vec_register_reads                   0                       # number of times the vector registers were read
system.cpu.num_vec_register_writes                  0                       # number of times the vector registers were written
system.cpu.op_class::No_OpClass                   186      0.01%      0.01% # Class of executed instruction
system.cpu.op_class::IntAlu                    936543     26.44%     26.44% # Class of executed instruction
system.cpu.op_class::IntMult                       29      0.00%     26.45% # Class of executed instruction
system.cpu.op_class::IntDiv                        70      0.00%     26.45% # Class of executed instruction
system.cpu.op_class::FloatAdd                      19      0.00%     26.45% # Class of executed instruction
system.cpu.op_class::FloatCmp                       0      0.00%     26.45% # Class of executed instruction
system.cpu.op_class::FloatCvt                       0      0.00%     26.45% # Class of executed instruction
system.cpu.op_class::FloatMult                      0      0.00%     26.45% # Class of executed instruction
system.cpu.op_class::FloatMultAcc                   0      0.00%     26.45% # Class of executed instruction
system.cpu.op_class::FloatDiv                       0      0.00%     26.45% # Class of executed instruction
system.cpu.op_class::FloatMisc                      0      0.00%     26.45% # Class of executed instruction
system.cpu.op_class::FloatSqrt                      0      0.00%     26.45% # Class of executed instruction
system.cpu.op_class::SimdAdd                        0      0.00%     26.45% # Class of executed instruction
system.cpu.op_class::SimdAddAcc                     0      0.00%     26.45% # Class of executed instruction
system.cpu.op_class::SimdAlu                      152      0.00%     26.45% # Class of executed instruction
system.cpu.op_class::SimdCmp                        0      0.00%     26.45% # Class of executed instruction
system.cpu.op_class::SimdCvt                      158      0.00%     26.46% # Class of executed instruction
system.cpu.op_class::SimdMisc                     221      0.01%     26.46% # Class of executed instruction
system.cpu.op_class::SimdMult                       0      0.00%     26.46% # Class of executed instruction
system.cpu.op_class::SimdMultAcc                    0      0.00%     26.46% # Class of executed instruction
system.cpu.op_class::SimdShift                      0      0.00%     26.46% # Class of executed instruction
system.cpu.op_class::SimdShiftAcc                   0      0.00%     26.46% # Class of executed instruction
system.cpu.op_class::SimdDiv                        0      0.00%     26.46% # Class of executed instruction
system.cpu.op_class::SimdSqrt                       0      0.00%     26.46% # Class of executed instruction
system.cpu.op_class::SimdFloatAdd                   0      0.00%     26.46% # Class of executed instruction
system.cpu.op_class::SimdFloatAlu                   0      0.00%     26.46% # Class of executed instruction
system.cpu.op_class::SimdFloatCmp                   0      0.00%     26.46% # Class of executed instruction
system.cpu.op_class::SimdFloatCvt                   2      0.00%     26.46% # Class of executed instruction
system.cpu.op_class::SimdFloatDiv                   0      0.00%     26.46% # Class of executed instruction
system.cpu.op_class::SimdFloatMisc                  0      0.00%     26.46% # Class of executed instruction
system.cpu.op_class::SimdFloatMult                  0      0.00%     26.46% # Class of executed instruction
system.cpu.op_class::SimdFloatMultAcc               0      0.00%     26.46% # Class of executed instruction
system.cpu.op_class::SimdFloatSqrt                  0      0.00%     26.46% # Class of executed instruction
system.cpu.op_class::SimdReduceAdd                  0      0.00%     26.46% # Class of executed instruction
system.cpu.op_class::SimdReduceAlu                  0      0.00%     26.46% # Class of executed instruction
system.cpu.op_class::SimdReduceCmp                  0      0.00%     26.46% # Class of executed instruction
system.cpu.op_class::SimdFloatReduceAdd             0      0.00%     26.46% # Class of executed instruction
system.cpu.op_class::SimdFloatReduceCmp             0      0.00%     26.46% # Class of executed instruction
system.cpu.op_class::SimdAes                        0      0.00%     26.46% # Class of executed instruction
system.cpu.op_class::SimdAesMix                     0      0.00%     26.46% # Class of executed instruction
system.cpu.op_class::SimdSha1Hash                   0      0.00%     26.46% # Class of executed instruction
system.cpu.op_class::SimdSha1Hash2                  0      0.00%     26.46% # Class of executed instruction
system.cpu.op_class::SimdSha256Hash                 0      0.00%     26.46% # Class of executed instruction
system.cpu.op_class::SimdSha256Hash2                0      0.00%     26.46% # Class of executed instruction
system.cpu.op_class::SimdShaSigma2                  0      0.00%     26.46% # Class of executed instruction
system.cpu.op_class::SimdShaSigma3                  0      0.00%     26.46% # Class of executed instruction
system.cpu.op_class::SimdPredAlu                    0      0.00%     26.46% # Class of executed instruction
system.cpu.op_class::MemRead                     4218      0.12%     26.58% # Class of executed instruction
system.cpu.op_class::MemWrite                  137492      3.88%     30.46% # Class of executed instruction
system.cpu.op_class::FloatMemRead                 102      0.00%     30.47% # Class of executed instruction
system.cpu.op_class::FloatMemWrite            2463094     69.53%    100.00% # Class of executed instruction
system.cpu.op_class::IprAccess                      0      0.00%    100.00% # Class of executed instruction
system.cpu.op_class::InstPrefetch                   0      0.00%    100.00% # Class of executed instruction
system.cpu.op_class::total                    3542286                       # Class of executed instruction
system.cpu.workload.numSyscalls                    19                       # Number of system calls
system.membus.snoop_filter.hit_multi_requests            0                       # Number of requests hitting in the snoop filter with multiple (>1) holders of the requested data.
system.membus.snoop_filter.hit_multi_snoops            0                       # Number of snoops hitting in the snoop filter with multiple (>1) holders of the requested data.
system.membus.snoop_filter.hit_single_requests            0                       # Number of requests hitting in the snoop filter with a single holder of the requested data.
system.membus.snoop_filter.hit_single_snoops            0                       # Number of snoops hitting in the snoop filter with a single holder of the requested data.
system.membus.snoop_filter.tot_requests             0                       # Total number of requests made to the snoop filter.
system.membus.snoop_filter.tot_snoops               0                       # Total number of snoops made to the snoop filter.
system.membus.trans_dist::ReadReq             4705229                       # Transaction distribution
system.membus.trans_dist::ReadResp            4705228                       # Transaction distribution
system.membus.trans_dist::WriteReq            2595518                       # Transaction distribution
system.membus.trans_dist::WriteResp           2595518                       # Transaction distribution
system.membus.pkt_count_system.cpu.icache_port::system.mem_ctrl.port      9401787                       # Packet count per connected master and slave (bytes)
system.membus.pkt_count_system.cpu.icache_port::total      9401787                       # Packet count per connected master and slave (bytes)
system.membus.pkt_count_system.memobj.mem_side::system.mem_ctrl.port      5199706                       # Packet count per connected master and slave (bytes)
system.membus.pkt_count_system.memobj.mem_side::total      5199706                       # Packet count per connected master and slave (bytes)
system.membus.pkt_count::total               14601493                       # Packet count per connected master and slave (bytes)
system.membus.pkt_size_system.cpu.icache_port::system.mem_ctrl.port     37607144                       # Cumulative packet size per connected master and slave (bytes)
system.membus.pkt_size_system.cpu.icache_port::total     37607144                       # Cumulative packet size per connected master and slave (bytes)
system.membus.pkt_size_system.memobj.mem_side::system.mem_ctrl.port     20269919                       # Cumulative packet size per connected master and slave (bytes)
system.membus.pkt_size_system.memobj.mem_side::total     20269919                       # Cumulative packet size per connected master and slave (bytes)
system.membus.pkt_size::total                57877063                       # Cumulative packet size per connected master and slave (bytes)
system.membus.snoops                                0                       # Total snoops (count)
system.membus.snoopTraffic                          0                       # Total snoop traffic (bytes)
system.membus.snoop_fanout::samples           7300747                       # Request fanout histogram
system.membus.snoop_fanout::mean                    0                       # Request fanout histogram
system.membus.snoop_fanout::stdev                   0                       # Request fanout histogram
system.membus.snoop_fanout::underflows              0      0.00%      0.00% # Request fanout histogram
system.membus.snoop_fanout::0                 7300747    100.00%    100.00% # Request fanout histogram
system.membus.snoop_fanout::1                       0      0.00%    100.00% # Request fanout histogram
system.membus.snoop_fanout::overflows               0      0.00%    100.00% # Request fanout histogram
system.membus.snoop_fanout::min_value               0                       # Request fanout histogram
system.membus.snoop_fanout::max_value               0                       # Request fanout histogram
system.membus.snoop_fanout::total             7300747                       # Request fanout histogram
system.membus.reqLayer2.occupancy          9896265000                       # Layer occupancy (ticks)
system.membus.reqLayer2.utilization               3.3                       # Layer utilization (%)
system.membus.respLayer1.occupancy         2605302000                       # Layer occupancy (ticks)
system.membus.respLayer1.utilization              0.9                       # Layer utilization (%)
system.membus.respLayer0.occupancy        10646938750                       # Layer occupancy (ticks)
system.membus.respLayer0.utilization              3.5                       # Layer utilization (%)
system.membus.power_state.pwrStateResidencyTicks::UNDEFINED 300676057000                       # Cumulative time (in ticks) in various power states
system.mem_ctrl.bytes_read::.cpu.inst        37607144                       # Number of bytes read from this memory
system.mem_ctrl.bytes_read::.cpu.data           27431                       # Number of bytes read from this memory
system.mem_ctrl.bytes_read::total            37634575                       # Number of bytes read from this memory
system.mem_ctrl.bytes_inst_read::.cpu.inst     37607144                       # Number of instructions bytes read from this memory
system.mem_ctrl.bytes_inst_read::total       37607144                       # Number of instructions bytes read from this memory
system.mem_ctrl.bytes_written::.cpu.data     20242488                       # Number of bytes written to this memory
system.mem_ctrl.bytes_written::total         20242488                       # Number of bytes written to this memory
system.mem_ctrl.num_reads::.cpu.inst          4700893                       # Number of read requests responded to by this memory
system.mem_ctrl.num_reads::.cpu.data             4335                       # Number of read requests responded to by this memory
system.mem_ctrl.num_reads::total              4705228                       # Number of read requests responded to by this memory
system.mem_ctrl.num_writes::.cpu.data         2595518                       # Number of write requests responded to by this memory
system.mem_ctrl.num_writes::total             2595518                       # Number of write requests responded to by this memory
system.mem_ctrl.bw_read::.cpu.inst          125075287                       # Total read bandwidth from this memory (bytes/s)
system.mem_ctrl.bw_read::.cpu.data              91231                       # Total read bandwidth from this memory (bytes/s)
system.mem_ctrl.bw_read::total              125166518                       # Total read bandwidth from this memory (bytes/s)
system.mem_ctrl.bw_inst_read::.cpu.inst     125075287                       # Instruction read bandwidth from this memory (bytes/s)
system.mem_ctrl.bw_inst_read::total         125075287                       # Instruction read bandwidth from this memory (bytes/s)
system.mem_ctrl.bw_write::.cpu.data          67323245                       # Write bandwidth from this memory (bytes/s)
system.mem_ctrl.bw_write::total              67323245                       # Write bandwidth from this memory (bytes/s)
system.mem_ctrl.bw_total::.cpu.inst         125075287                       # Total bandwidth to/from this memory (bytes/s)
system.mem_ctrl.bw_total::.cpu.data          67414477                       # Total bandwidth to/from this memory (bytes/s)
system.mem_ctrl.bw_total::total             192489763                       # Total bandwidth to/from this memory (bytes/s)
system.mem_ctrl.avgPriority_.cpu.inst::samples   4700894.00                       # Average QoS priority value for accepted requests
system.mem_ctrl.avgPriority_.cpu.data::samples    331056.00                       # Average QoS priority value for accepted requests
system.mem_ctrl.priorityMinLatency       0.000000018750                       # per QoS priority minimum request to response latency (s)
system.mem_ctrl.priorityMaxLatency       0.002517780500                       # per QoS priority maximum request to response latency (s)
system.mem_ctrl.numReadWriteTurnArounds         20453                       # Number of turnarounds from READ to WRITE
system.mem_ctrl.numWriteReadTurnArounds         20453                       # Number of turnarounds from WRITE to READ
system.mem_ctrl.numStayReadState             12061108                       # Number of times bus staying in READ state
system.mem_ctrl.numStayWriteState              307257                       # Number of times bus staying in WRITE state
system.mem_ctrl.readReqs                      4705229                       # Number of read requests accepted
system.mem_ctrl.writeReqs                     2595518                       # Number of write requests accepted
system.mem_ctrl.readBursts                    4705229                       # Number of DRAM read bursts, including those serviced by the write queue
system.mem_ctrl.writeBursts                   2595518                       # Number of DRAM write bursts, including those merged in the write queue
system.mem_ctrl.servicedByWrQ                     668                       # Number of DRAM read bursts serviced by the write queue
system.mem_ctrl.mergedWrBursts                2268129                       # Number of DRAM write bursts merged with an existing one
system.mem_ctrl.neitherReadNorWriteReqs             0                       # Number of requests that are neither read nor write
system.mem_ctrl.perBankRdBursts::0            4678446                       # Per bank write bursts
system.mem_ctrl.perBankRdBursts::1                965                       # Per bank write bursts
system.mem_ctrl.perBankRdBursts::2                681                       # Per bank write bursts
system.mem_ctrl.perBankRdBursts::3               1127                       # Per bank write bursts
system.mem_ctrl.perBankRdBursts::4               1054                       # Per bank write bursts
system.mem_ctrl.perBankRdBursts::5                514                       # Per bank write bursts
system.mem_ctrl.perBankRdBursts::6                966                       # Per bank write bursts
system.mem_ctrl.perBankRdBursts::7                 24                       # Per bank write bursts
system.mem_ctrl.perBankRdBursts::8                194                       # Per bank write bursts
system.mem_ctrl.perBankRdBursts::9               1580                       # Per bank write bursts
system.mem_ctrl.perBankRdBursts::10               993                       # Per bank write bursts
system.mem_ctrl.perBankRdBursts::11              1826                       # Per bank write bursts
system.mem_ctrl.perBankRdBursts::12              3616                       # Per bank write bursts
system.mem_ctrl.perBankRdBursts::13             10000                       # Per bank write bursts
system.mem_ctrl.perBankRdBursts::14               947                       # Per bank write bursts
system.mem_ctrl.perBankRdBursts::15              1628                       # Per bank write bursts
system.mem_ctrl.perBankWrBursts::0              20352                       # Per bank write bursts
system.mem_ctrl.perBankWrBursts::1              23125                       # Per bank write bursts
system.mem_ctrl.perBankWrBursts::2              20568                       # Per bank write bursts
system.mem_ctrl.perBankWrBursts::3              20224                       # Per bank write bursts
system.mem_ctrl.perBankWrBursts::4              20224                       # Per bank write bursts
system.mem_ctrl.perBankWrBursts::5              20224                       # Per bank write bursts
system.mem_ctrl.perBankWrBursts::6              20224                       # Per bank write bursts
system.mem_ctrl.perBankWrBursts::7              20224                       # Per bank write bursts
system.mem_ctrl.perBankWrBursts::8              20227                       # Per bank write bursts
system.mem_ctrl.perBankWrBursts::9              20293                       # Per bank write bursts
system.mem_ctrl.perBankWrBursts::10             20252                       # Per bank write bursts
system.mem_ctrl.perBankWrBursts::11             20291                       # Per bank write bursts
system.mem_ctrl.perBankWrBursts::12             20245                       # Per bank write bursts
system.mem_ctrl.perBankWrBursts::13             20254                       # Per bank write bursts
system.mem_ctrl.perBankWrBursts::14             20289                       # Per bank write bursts
system.mem_ctrl.perBankWrBursts::15             20352                       # Per bank write bursts
system.mem_ctrl.avgRdQLen                        1.00                       # Average read queue length when enqueuing
system.mem_ctrl.avgWrQLen                       25.57                       # Average write queue length when enqueuing
system.mem_ctrl.totQLat                   15564042000                       # Total ticks spent queuing
system.mem_ctrl.totBusLat                 23522805000                       # Total ticks spent in databus transfers
system.mem_ctrl.totMemAccLat             103774560750                       # Total ticks spent from burst creation until serviced by the DRAM
system.mem_ctrl.avgQLat                       3308.29                       # Average queueing delay per DRAM burst
system.mem_ctrl.avgBusLat                     5000.00                       # Average bus latency per DRAM burst
system.mem_ctrl.avgMemAccLat                 22058.29                       # Average memory access latency per DRAM burst
system.mem_ctrl.numRdRetry                          0                       # Number of times read queue was full causing retry
system.mem_ctrl.numWrRetry                          0                       # Number of times write queue was full causing retry
system.mem_ctrl.readRowHits                   4393797                       # Number of row buffer hits during reads
system.mem_ctrl.writeRowHits                   304374                       # Number of row buffer hits during writes
system.mem_ctrl.readRowHitRate                  93.39                       # Row buffer hit rate for reads
system.mem_ctrl.writeRowHitRate                 92.97                       # Row buffer hit rate for writes
system.mem_ctrl.readPktSize::0                    569                       # Read request sizes (log2)
system.mem_ctrl.readPktSize::1                     34                       # Read request sizes (log2)
system.mem_ctrl.readPktSize::2                    761                       # Read request sizes (log2)
system.mem_ctrl.readPktSize::3                4703865                       # Read request sizes (log2)
system.mem_ctrl.readPktSize::4                      0                       # Read request sizes (log2)
system.mem_ctrl.readPktSize::5                      0                       # Read request sizes (log2)
system.mem_ctrl.readPktSize::6                      0                       # Read request sizes (log2)
system.mem_ctrl.writePktSize::0                   210                       # Write request sizes (log2)
system.mem_ctrl.writePktSize::1                    15                       # Write request sizes (log2)
system.mem_ctrl.writePktSize::2                130024                       # Write request sizes (log2)
system.mem_ctrl.writePktSize::3               2465269                       # Write request sizes (log2)
system.mem_ctrl.writePktSize::4                     0                       # Write request sizes (log2)
system.mem_ctrl.writePktSize::5                     0                       # Write request sizes (log2)
system.mem_ctrl.writePktSize::6                     0                       # Write request sizes (log2)
system.mem_ctrl.rdQLenPdf::0                  4704546                       # What read queue length does an incoming req see
system.mem_ctrl.rdQLenPdf::1                       15                       # What read queue length does an incoming req see
system.mem_ctrl.rdQLenPdf::2                        0                       # What read queue length does an incoming req see
system.mem_ctrl.rdQLenPdf::3                        0                       # What read queue length does an incoming req see
system.mem_ctrl.rdQLenPdf::4                        0                       # What read queue length does an incoming req see
system.mem_ctrl.rdQLenPdf::5                        0                       # What read queue length does an incoming req see
system.mem_ctrl.rdQLenPdf::6                        0                       # What read queue length does an incoming req see
system.mem_ctrl.rdQLenPdf::7                        0                       # What read queue length does an incoming req see
system.mem_ctrl.rdQLenPdf::8                        0                       # What read queue length does an incoming req see
system.mem_ctrl.rdQLenPdf::9                        0                       # What read queue length does an incoming req see
system.mem_ctrl.rdQLenPdf::10                       0                       # What read queue length does an incoming req see
system.mem_ctrl.rdQLenPdf::11                       0                       # What read queue length does an incoming req see
system.mem_ctrl.rdQLenPdf::12                       0                       # What read queue length does an incoming req see
system.mem_ctrl.rdQLenPdf::13                       0                       # What read queue length does an incoming req see
system.mem_ctrl.rdQLenPdf::14                       0                       # What read queue length does an incoming req see
system.mem_ctrl.rdQLenPdf::15                       0                       # What read queue length does an incoming req see
system.mem_ctrl.rdQLenPdf::16                       0                       # What read queue length does an incoming req see
system.mem_ctrl.rdQLenPdf::17                       0                       # What read queue length does an incoming req see
system.mem_ctrl.rdQLenPdf::18                       0                       # What read queue length does an incoming req see
system.mem_ctrl.rdQLenPdf::19                       0                       # What read queue length does an incoming req see
system.mem_ctrl.rdQLenPdf::20                       0                       # What read queue length does an incoming req see
system.mem_ctrl.rdQLenPdf::21                       0                       # What read queue length does an incoming req see
system.mem_ctrl.rdQLenPdf::22                       0                       # What read queue length does an incoming req see
system.mem_ctrl.rdQLenPdf::23                       0                       # What read queue length does an incoming req see
system.mem_ctrl.rdQLenPdf::24                       0                       # What read queue length does an incoming req see
system.mem_ctrl.rdQLenPdf::25                       0                       # What read queue length does an incoming req see
system.mem_ctrl.rdQLenPdf::26                       0                       # What read queue length does an incoming req see
system.mem_ctrl.rdQLenPdf::27                       0                       # What read queue length does an incoming req see
system.mem_ctrl.rdQLenPdf::28                       0                       # What read queue length does an incoming req see
system.mem_ctrl.rdQLenPdf::29                       0                       # What read queue length does an incoming req see
system.mem_ctrl.rdQLenPdf::30                       0                       # What read queue length does an incoming req see
system.mem_ctrl.rdQLenPdf::31                       0                       # What read queue length does an incoming req see
system.mem_ctrl.wrQLenPdf::0                        1                       # What write queue length does an incoming req see
system.mem_ctrl.wrQLenPdf::1                        1                       # What write queue length does an incoming req see
system.mem_ctrl.wrQLenPdf::2                        1                       # What write queue length does an incoming req see
system.mem_ctrl.wrQLenPdf::3                        1                       # What write queue length does an incoming req see
system.mem_ctrl.wrQLenPdf::4                        1                       # What write queue length does an incoming req see
system.mem_ctrl.wrQLenPdf::5                        1                       # What write queue length does an incoming req see
system.mem_ctrl.wrQLenPdf::6                        1                       # What write queue length does an incoming req see
system.mem_ctrl.wrQLenPdf::7                        1                       # What write queue length does an incoming req see
system.mem_ctrl.wrQLenPdf::8                        1                       # What write queue length does an incoming req see
system.mem_ctrl.wrQLenPdf::9                        1                       # What write queue length does an incoming req see
system.mem_ctrl.wrQLenPdf::10                       1                       # What write queue length does an incoming req see
system.mem_ctrl.wrQLenPdf::11                       1                       # What write queue length does an incoming req see
system.mem_ctrl.wrQLenPdf::12                       1                       # What write queue length does an incoming req see
system.mem_ctrl.wrQLenPdf::13                       1                       # What write queue length does an incoming req see
system.mem_ctrl.wrQLenPdf::14                       1                       # What write queue length does an incoming req see
system.mem_ctrl.wrQLenPdf::15                      61                       # What write queue length does an incoming req see
system.mem_ctrl.wrQLenPdf::16                      61                       # What write queue length does an incoming req see
system.mem_ctrl.wrQLenPdf::17                   20454                       # What write queue length does an incoming req see
system.mem_ctrl.wrQLenPdf::18                   20454                       # What write queue length does an incoming req see
system.mem_ctrl.wrQLenPdf::19                   20454                       # What write queue length does an incoming req see
system.mem_ctrl.wrQLenPdf::20                   20454                       # What write queue length does an incoming req see
system.mem_ctrl.wrQLenPdf::21                   20453                       # What write queue length does an incoming req see
system.mem_ctrl.wrQLenPdf::22                   20453                       # What write queue length does an incoming req see
system.mem_ctrl.wrQLenPdf::23                   20453                       # What write queue length does an incoming req see
system.mem_ctrl.wrQLenPdf::24                   20453                       # What write queue length does an incoming req see
system.mem_ctrl.wrQLenPdf::25                   20453                       # What write queue length does an incoming req see
system.mem_ctrl.wrQLenPdf::26                   20453                       # What write queue length does an incoming req see
system.mem_ctrl.wrQLenPdf::27                   20453                       # What write queue length does an incoming req see
system.mem_ctrl.wrQLenPdf::28                   20453                       # What write queue length does an incoming req see
system.mem_ctrl.wrQLenPdf::29                   20453                       # What write queue length does an incoming req see
system.mem_ctrl.wrQLenPdf::30                   20453                       # What write queue length does an incoming req see
system.mem_ctrl.wrQLenPdf::31                   20453                       # What write queue length does an incoming req see
system.mem_ctrl.wrQLenPdf::32                   20453                       # What write queue length does an incoming req see
system.mem_ctrl.wrQLenPdf::33                       0                       # What write queue length does an incoming req see
system.mem_ctrl.wrQLenPdf::34                       0                       # What write queue length does an incoming req see
system.mem_ctrl.wrQLenPdf::35                       0                       # What write queue length does an incoming req see
system.mem_ctrl.wrQLenPdf::36                       0                       # What write queue length does an incoming req see
system.mem_ctrl.wrQLenPdf::37                       0                       # What write queue length does an incoming req see
system.mem_ctrl.wrQLenPdf::38                       0                       # What write queue length does an incoming req see
system.mem_ctrl.wrQLenPdf::39                       0                       # What write queue length does an incoming req see
system.mem_ctrl.wrQLenPdf::40                       0                       # What write queue length does an incoming req see
system.mem_ctrl.wrQLenPdf::41                       0                       # What write queue length does an incoming req see
system.mem_ctrl.wrQLenPdf::42                       0                       # What write queue length does an incoming req see
system.mem_ctrl.wrQLenPdf::43                       0                       # What write queue length does an incoming req see
system.mem_ctrl.wrQLenPdf::44                       0                       # What write queue length does an incoming req see
system.mem_ctrl.wrQLenPdf::45                       0                       # What write queue length does an incoming req see
system.mem_ctrl.wrQLenPdf::46                       0                       # What write queue length does an incoming req see
system.mem_ctrl.wrQLenPdf::47                       0                       # What write queue length does an incoming req see
system.mem_ctrl.wrQLenPdf::48                       0                       # What write queue length does an incoming req see
system.mem_ctrl.wrQLenPdf::49                       0                       # What write queue length does an incoming req see
system.mem_ctrl.wrQLenPdf::50                       0                       # What write queue length does an incoming req see
system.mem_ctrl.wrQLenPdf::51                       0                       # What write queue length does an incoming req see
system.mem_ctrl.wrQLenPdf::52                       0                       # What write queue length does an incoming req see
system.mem_ctrl.wrQLenPdf::53                       0                       # What write queue length does an incoming req see
system.mem_ctrl.wrQLenPdf::54                       0                       # What write queue length does an incoming req see
system.mem_ctrl.wrQLenPdf::55                       0                       # What write queue length does an incoming req see
system.mem_ctrl.wrQLenPdf::56                       0                       # What write queue length does an incoming req see
system.mem_ctrl.wrQLenPdf::57                       0                       # What write queue length does an incoming req see
system.mem_ctrl.wrQLenPdf::58                       0                       # What write queue length does an incoming req see
system.mem_ctrl.wrQLenPdf::59                       0                       # What write queue length does an incoming req see
system.mem_ctrl.wrQLenPdf::60                       0                       # What write queue length does an incoming req see
system.mem_ctrl.wrQLenPdf::61                       0                       # What write queue length does an incoming req see
system.mem_ctrl.wrQLenPdf::62                       0                       # What write queue length does an incoming req see
system.mem_ctrl.wrQLenPdf::63                       0                       # What write queue length does an incoming req see
system.mem_ctrl.bytesPerActivate::samples       333757                       # Bytes accessed per row activation
system.mem_ctrl.bytesPerActivate::mean     964.903783                       # Bytes accessed per row activation
system.mem_ctrl.bytesPerActivate::gmean    941.911819                       # Bytes accessed per row activation
system.mem_ctrl.bytesPerActivate::stdev    158.370380                       # Bytes accessed per row activation
system.mem_ctrl.bytesPerActivate::0-127           687      0.21%      0.21% # Bytes accessed per row activation
system.mem_ctrl.bytesPerActivate::128-255         1760      0.53%      0.73% # Bytes accessed per row activation
system.mem_ctrl.bytesPerActivate::256-383         1422      0.43%      1.16% # Bytes accessed per row activation
system.mem_ctrl.bytesPerActivate::384-511         1021      0.31%      1.47% # Bytes accessed per row activation
system.mem_ctrl.bytesPerActivate::512-639        13835      4.15%      5.61% # Bytes accessed per row activation
system.mem_ctrl.bytesPerActivate::640-767        23941      7.17%     12.78% # Bytes accessed per row activation
system.mem_ctrl.bytesPerActivate::768-895         1966      0.59%     13.37% # Bytes accessed per row activation
system.mem_ctrl.bytesPerActivate::896-1023         1345      0.40%     13.78% # Bytes accessed per row activation
system.mem_ctrl.bytesPerActivate::1024-1151       287780     86.22%    100.00% # Bytes accessed per row activation
system.mem_ctrl.bytesPerActivate::total        333757                       # Bytes accessed per row activation
system.mem_ctrl.rdPerTurnAround::samples        20453                       # Reads before turning the bus around for writes
system.mem_ctrl.rdPerTurnAround::mean      230.015303                       # Reads before turning the bus around for writes
system.mem_ctrl.rdPerTurnAround::gmean     228.786311                       # Reads before turning the bus around for writes
system.mem_ctrl.rdPerTurnAround::stdev     129.994772                       # Reads before turning the bus around for writes
system.mem_ctrl.rdPerTurnAround::0-1023         20449     99.98%     99.98% # Reads before turning the bus around for writes
system.mem_ctrl.rdPerTurnAround::1024-2047            3      0.01%    100.00% # Reads before turning the bus around for writes
system.mem_ctrl.rdPerTurnAround::18432-19455            1      0.00%    100.00% # Reads before turning the bus around for writes
system.mem_ctrl.rdPerTurnAround::total          20453                       # Reads before turning the bus around for writes
system.mem_ctrl.wrPerTurnAround::samples        20453                       # Writes before turning the bus around for reads
system.mem_ctrl.wrPerTurnAround::mean       16.005867                       # Writes before turning the bus around for reads
system.mem_ctrl.wrPerTurnAround::gmean      16.005529                       # Writes before turning the bus around for reads
system.mem_ctrl.wrPerTurnAround::stdev       0.108168                       # Writes before turning the bus around for reads
system.mem_ctrl.wrPerTurnAround::16             20393     99.71%     99.71% # Writes before turning the bus around for reads
system.mem_ctrl.wrPerTurnAround::18                60      0.29%    100.00% # Writes before turning the bus around for reads
system.mem_ctrl.wrPerTurnAround::total          20453                       # Writes before turning the bus around for reads
system.mem_ctrl.bytesReadDRAM               301091904                       # Total number of bytes read from DRAM
system.mem_ctrl.bytesReadWrQ                    42752                       # Total number of bytes read from write queue
system.mem_ctrl.bytesWritten                 20951552                       # Total number of bytes written to DRAM
system.mem_ctrl.bytesReadSys                 37634583                       # Total read bytes from the system interface side
system.mem_ctrl.bytesWrittenSys              20242488                       # Total written bytes from the system interface side
system.mem_ctrl.avgRdBW                       1001.38                       # Average DRAM read bandwidth in MiByte/s
system.mem_ctrl.avgWrBW                         69.68                       # Average achieved write bandwidth in MiByte/s
system.mem_ctrl.avgRdBWSys                     125.17                       # Average system read bandwidth in MiByte/s
system.mem_ctrl.avgWrBWSys                      67.32                       # Average system write bandwidth in MiByte/s
system.mem_ctrl.peakBW                       12800.00                       # Theoretical peak bandwidth in MiByte/s
system.mem_ctrl.busUtil                          8.37                       # Data bus utilization in percentage
system.mem_ctrl.busUtilRead                      7.82                       # Data bus utilization in percentage for reads
system.mem_ctrl.busUtilWrite                     0.54                       # Data bus utilization in percentage for writes
system.mem_ctrl.totGap                   300675980000                       # Total gap between requests
system.mem_ctrl.avgGap                       41184.28                       # Average gap between requests
system.mem_ctrl.masterReadBytes::.cpu.inst     37607152                       # Per-master bytes read from memory
system.mem_ctrl.masterReadBytes::.cpu.data        23561                       # Per-master bytes read from memory
system.mem_ctrl.masterWriteBytes::.cpu.data      2100297                       # Per-master bytes write to memory
system.mem_ctrl.masterReadRate::.cpu.inst 125075313.196620777249                       # Per-master bytes read from memory rate (Bytes/sec)
system.mem_ctrl.masterReadRate::.cpu.data 78360.080397089943                       # Per-master bytes read from memory rate (Bytes/sec)
system.mem_ctrl.masterWriteRate::.cpu.data 6985248.579337329604                       # Per-master bytes write to memory rate (Bytes/sec)
system.mem_ctrl.masterReadAccesses::.cpu.inst      4700894                       # Per-master read serviced memory accesses
system.mem_ctrl.masterReadAccesses::.cpu.data         4335                       # Per-master read serviced memory accesses
system.mem_ctrl.masterWriteAccesses::.cpu.data      2595518                       # Per-master write serviced memory accesses
system.mem_ctrl.masterReadTotalLat::.cpu.inst 103687809750                       # Per-master read total memory access latency
system.mem_ctrl.masterReadTotalLat::.cpu.data     86751000                       # Per-master read total memory access latency
system.mem_ctrl.masterWriteTotalLat::.cpu.data 7400889400750                       # Per-master write total memory access latency
system.mem_ctrl.masterReadAvgLat::.cpu.inst     22057.04                       # Per-master read average memory access latency
system.mem_ctrl.masterReadAvgLat::.cpu.data     20011.76                       # Per-master read average memory access latency
system.mem_ctrl.masterWriteAvgLat::.cpu.data   2851411.32                       # Per-master write average memory access latency
system.mem_ctrl.pageHitRate                     93.37                       # Row buffer hit rate, read and write combined
system.mem_ctrl.rank1.actEnergy              94662120                       # Energy for activate commands per rank (pJ)
system.mem_ctrl.rank1.preEnergy              50314110                       # Energy for precharge commands per rank (pJ)
system.mem_ctrl.rank1.readEnergy            148397760                       # Energy for read commands per rank (pJ)
system.mem_ctrl.rank1.writeEnergy           846699660                       # Energy for write commands per rank (pJ)
system.mem_ctrl.rank1.refreshEnergy      23734938240.000004                       # Energy for refresh commands per rank (pJ)
system.mem_ctrl.rank1.actBackEnergy        8230470540                       # Energy for active background per rank (pJ)
system.mem_ctrl.rank1.preBackEnergy      108528683520                       # Energy for precharge background per rank (pJ)
system.mem_ctrl.rank1.actPowerDownEnergy            0                       # Energy for active power-down per rank (pJ)
system.mem_ctrl.rank1.prePowerDownEnergy            0                       # Energy for precharge power-down per rank (pJ)
system.mem_ctrl.rank1.selfRefreshEnergy             0                       # Energy for self refresh per rank (pJ)
system.mem_ctrl.rank1.totalEnergy        141634165950                       # Total energy per rank (pJ)
system.mem_ctrl.rank1.averagePower         471.052359                       # Core power per rank (mW)
system.mem_ctrl.rank1.totalIdleTime                 0                       # Total Idle time Per DRAM Rank
system.mem_ctrl.rank1.memoryStateTime::IDLE 281948458750                       # Time in different power states
system.mem_ctrl.rank1.memoryStateTime::REF  10040160000                       # Time in different power states
system.mem_ctrl.rank1.memoryStateTime::SREF            0                       # Time in different power states
system.mem_ctrl.rank1.memoryStateTime::PRE_PDN            0                       # Time in different power states
system.mem_ctrl.rank1.memoryStateTime::ACT   8687438250                       # Time in different power states
system.mem_ctrl.rank1.memoryStateTime::ACT_PDN            0                       # Time in different power states
system.mem_ctrl.rank0.actEnergy            2288370000                       # Energy for activate commands per rank (pJ)
system.mem_ctrl.rank0.preEnergy            1216293705                       # Energy for precharge commands per rank (pJ)
system.mem_ctrl.rank0.readEnergy          33442160640                       # Energy for read commands per rank (pJ)
system.mem_ctrl.rank0.writeEnergy           862161300                       # Energy for write commands per rank (pJ)
system.mem_ctrl.rank0.refreshEnergy      23734938240.000004                       # Energy for refresh commands per rank (pJ)
system.mem_ctrl.rank0.actBackEnergy      130028084220                       # Energy for active background per rank (pJ)
system.mem_ctrl.rank0.preBackEnergy        5962272000                       # Energy for precharge background per rank (pJ)
system.mem_ctrl.rank0.actPowerDownEnergy            0                       # Energy for active power-down per rank (pJ)
system.mem_ctrl.rank0.prePowerDownEnergy            0                       # Energy for precharge power-down per rank (pJ)
system.mem_ctrl.rank0.selfRefreshEnergy             0                       # Energy for self refresh per rank (pJ)
system.mem_ctrl.rank0.totalEnergy        197534280105                       # Total energy per rank (pJ)
system.mem_ctrl.rank0.averagePower         656.967110                       # Core power per rank (mW)
system.mem_ctrl.rank0.totalIdleTime                 0                       # Total Idle time Per DRAM Rank
system.mem_ctrl.rank0.memoryStateTime::IDLE  10795729000                       # Time in different power states
system.mem_ctrl.rank0.memoryStateTime::REF  10040160000                       # Time in different power states
system.mem_ctrl.rank0.memoryStateTime::SREF            0                       # Time in different power states
system.mem_ctrl.rank0.memoryStateTime::PRE_PDN            0                       # Time in different power states
system.mem_ctrl.rank0.memoryStateTime::ACT 279840168000                       # Time in different power states
system.mem_ctrl.rank0.memoryStateTime::ACT_PDN            0                       # Time in different power states
system.mem_ctrl.power_state.pwrStateResidencyTicks::UNDEFINED 300676057000                       # Cumulative time (in ticks) in various power states
system.cache.blocked_cycles::no_mshrs               0                       # number of cycles access was blocked
system.cache.blocked_cycles::no_targets             0                       # number of cycles access was blocked
system.cache.blocked::no_mshrs                      0                       # number of cycles access was blocked
system.cache.blocked::no_targets                    0                       # number of cycles access was blocked
system.cache.avg_blocked_cycles::no_mshrs          nan                       # average number of cycles each access was blocked
system.cache.avg_blocked_cycles::no_targets          nan                       # average number of cycles each access was blocked
system.cache.replacements                           0                       # number of replacements
system.cache.power_state.pwrStateResidencyTicks::UNDEFINED 300676057000                       # Cumulative time (in ticks) in various power states
system.cache.tags.tagsinuse                         0                       # Cycle average of tags in use
system.cache.tags.total_refs                        0                       # Total number of references to valid blocks.
system.cache.tags.sampled_refs                      0                       # Sample count of references to valid blocks.
system.cache.tags.avg_refs                        nan                       # Average number of references to valid blocks.
system.cache.tags.warmup_cycle                      0                       # Cycle when the warmup percentage was hit.
system.cache.tags.tag_accesses                      0                       # Number of tag accesses
system.cache.tags.data_accesses                     0                       # Number of data accesses
system.cache.tags.power_state.pwrStateResidencyTicks::UNDEFINED 300676057000                       # Cumulative time (in ticks) in various power states
system.clk_domain.clock                          1000                       # Clock period in ticks
system.clk_domain.voltage_domain.voltage            1                       # Voltage in Volts
system.cachebus.snoops                              0                       # Total snoops (count)
system.cachebus.snoopTraffic                        0                       # Total snoop traffic (bytes)
system.cachebus.snoop_fanout::samples               0                       # Request fanout histogram
system.cachebus.snoop_fanout::mean                nan                       # Request fanout histogram
system.cachebus.snoop_fanout::stdev               nan                       # Request fanout histogram
system.cachebus.snoop_fanout::underflows            0                       # Request fanout histogram
system.cachebus.snoop_fanout::0                     0                       # Request fanout histogram
system.cachebus.snoop_fanout::overflows             0                       # Request fanout histogram
system.cachebus.snoop_fanout::min_value             0                       # Request fanout histogram
system.cachebus.snoop_fanout::max_value             0                       # Request fanout histogram
system.cachebus.snoop_fanout::total                 0                       # Request fanout histogram
system.cachebus.power_state.pwrStateResidencyTicks::UNDEFINED 300676057000                       # Cumulative time (in ticks) in various power states
system.cpu.dtb.walker.power_state.pwrStateResidencyTicks::UNDEFINED 300676057000                       # Cumulative time (in ticks) in various power states
system.cpu.interrupts.clk_domain.clock          16000                       # Clock period in ticks
system.cpu.itb.walker.power_state.pwrStateResidencyTicks::UNDEFINED 300676057000                       # Cumulative time (in ticks) in various power states
system.cpu.power_state.numTransitions               1                       # Number of power state transitions
system.cpu.power_state.pwrStateResidencyTicks::ON 300676057000                       # Cumulative time (in ticks) in various power states

---------- End Simulation Statistics   ----------
