
---------- Begin Simulation Statistics ----------
final_tick                               247061225000                       # Number of ticks from beginning of simulation (restored from checkpoints and never reset)
host_inst_rate                                 170591                       # Simulator instruction rate (inst/s)
host_mem_usage                                 902412                       # Number of bytes of host memory used
host_op_rate                                   321217                       # Simulator op (including micro ops) rate (op/s)
host_seconds                                    17.59                       # Real time elapsed on the host
host_tick_rate                            14048660072                       # Simulator tick rate (ticks/s)
sim_freq                                 1000000000000                       # Frequency of simulated ticks
sim_insts                                     3000000                       # Number of instructions simulated
sim_ops                                       5648949                       # Number of ops (including micro ops) simulated
sim_seconds                                  0.247061                       # Number of seconds simulated
sim_ticks                                247061225000                       # Number of ticks simulated
system.cachebus.snoop_filter.hit_multi_requests            0                       # Number of requests hitting in the snoop filter with multiple (>1) holders of the requested data.
system.cachebus.snoop_filter.hit_multi_snoops            0                       # Number of snoops hitting in the snoop filter with multiple (>1) holders of the requested data.
system.cachebus.snoop_filter.hit_single_requests            0                       # Number of requests hitting in the snoop filter with a single holder of the requested data.
system.cachebus.snoop_filter.hit_single_snoops            0                       # Number of snoops hitting in the snoop filter with a single holder of the requested data.
system.cachebus.snoop_filter.tot_requests            0                       # Total number of requests made to the snoop filter.
system.cachebus.snoop_filter.tot_snoops             0                       # Total number of snoops made to the snoop filter.
system.cpu.Branches                            664454                       # Number of branches fetched
system.cpu.committedInsts                     3000000                       # Number of instructions committed
system.cpu.committedOps                       5648949                       # Number of ops (including micro ops) committed
system.cpu.dtb.rdAccesses                      697605                       # TLB accesses on read requests
system.cpu.dtb.rdMisses                            87                       # TLB misses on read requests
system.cpu.dtb.wrAccesses                      342410                       # TLB accesses on write requests
system.cpu.dtb.wrMisses                            84                       # TLB misses on write requests
system.cpu.idle_fraction                            0                       # Percentage of idle cycles
system.cpu.itb.rdAccesses                           0                       # TLB accesses on read requests
system.cpu.itb.rdMisses                             0                       # TLB misses on read requests
system.cpu.itb.wrAccesses                     3884496                       # TLB accesses on write requests
system.cpu.itb.wrMisses                           496                       # TLB misses on write requests
system.cpu.not_idle_fraction                        1                       # Percentage of non-idle cycles
system.cpu.numCycles                        247061225                       # number of cpu cycles simulated
system.cpu.numWorkItemsCompleted                    0                       # number of work items this cpu completed
system.cpu.numWorkItemsStarted                      0                       # number of work items this cpu started
system.cpu.num_busy_cycles                  247061225                       # Number of busy cycles
system.cpu.num_cc_register_reads              3254277                       # number of times the CC registers were read
system.cpu.num_cc_register_writes             1920818                       # number of times the CC registers were written
system.cpu.num_conditional_control_insts       492683                       # number of instructions that are conditional controls
system.cpu.num_fp_alu_accesses                 294691                       # Number of float alu accesses
system.cpu.num_fp_insts                        294691                       # number of float instructions
system.cpu.num_fp_register_reads               386572                       # number of times the floating registers were read
system.cpu.num_fp_register_writes              244092                       # number of times the floating registers were written
system.cpu.num_func_calls                      123353                       # number of times a function call or return occured
system.cpu.num_idle_cycles                          0                       # Number of idle cycles
system.cpu.num_int_alu_accesses               5479478                       # Number of integer alu accesses
system.cpu.num_int_insts                      5479478                       # number of integer instructions
system.cpu.num_int_register_reads            10799293                       # number of times the integer registers were read
system.cpu.num_int_register_writes            4546049                       # number of times the integer registers were written
system.cpu.num_load_insts                      696553                       # Number of load instructions
system.cpu.num_mem_refs                       1038711                       # number of memory refs
system.cpu.num_store_insts                     342158                       # Number of store instructions
system.cpu.num_vec_alu_accesses                     0                       # Number of vector alu accesses
system.cpu.num_vec_insts                            0                       # number of vector instructions
system.cpu.num_vec_register_reads                   0                       # number of times the vector registers were read
system.cpu.num_vec_register_writes                  0                       # number of times the vector registers were written
system.cpu.op_class::No_OpClass                 27846      0.49%      0.49% # Class of executed instruction
system.cpu.op_class::IntAlu                   4364568     77.26%     77.76% # Class of executed instruction
system.cpu.op_class::IntMult                    12970      0.23%     77.99% # Class of executed instruction
system.cpu.op_class::IntDiv                     81801      1.45%     79.43% # Class of executed instruction
system.cpu.op_class::FloatAdd                     634      0.01%     79.44% # Class of executed instruction
system.cpu.op_class::FloatCmp                       0      0.00%     79.44% # Class of executed instruction
system.cpu.op_class::FloatCvt                       0      0.00%     79.44% # Class of executed instruction
system.cpu.op_class::FloatMult                      0      0.00%     79.44% # Class of executed instruction
system.cpu.op_class::FloatMultAcc                   0      0.00%     79.44% # Class of executed instruction
system.cpu.op_class::FloatDiv                       0      0.00%     79.44% # Class of executed instruction
system.cpu.op_class::FloatMisc                      0      0.00%     79.44% # Class of executed instruction
system.cpu.op_class::FloatSqrt                      0      0.00%     79.44% # Class of executed instruction
system.cpu.op_class::SimdAdd                      258      0.00%     79.45% # Class of executed instruction
system.cpu.op_class::SimdAddAcc                     0      0.00%     79.45% # Class of executed instruction
system.cpu.op_class::SimdAlu                    16254      0.29%     79.74% # Class of executed instruction
system.cpu.op_class::SimdCmp                      378      0.01%     79.74% # Class of executed instruction
system.cpu.op_class::SimdCvt                     8906      0.16%     79.90% # Class of executed instruction
system.cpu.op_class::SimdMisc                   15855      0.28%     80.18% # Class of executed instruction
system.cpu.op_class::SimdMult                       0      0.00%     80.18% # Class of executed instruction
system.cpu.op_class::SimdMultAcc                    0      0.00%     80.18% # Class of executed instruction
system.cpu.op_class::SimdShift                      0      0.00%     80.18% # Class of executed instruction
system.cpu.op_class::SimdShiftAcc                   0      0.00%     80.18% # Class of executed instruction
system.cpu.op_class::SimdDiv                        0      0.00%     80.18% # Class of executed instruction
system.cpu.op_class::SimdSqrt                       0      0.00%     80.18% # Class of executed instruction
system.cpu.op_class::SimdFloatAdd               26705      0.47%     80.65% # Class of executed instruction
system.cpu.op_class::SimdFloatAlu                   0      0.00%     80.65% # Class of executed instruction
system.cpu.op_class::SimdFloatCmp                   0      0.00%     80.65% # Class of executed instruction
system.cpu.op_class::SimdFloatCvt                9727      0.17%     80.83% # Class of executed instruction
system.cpu.op_class::SimdFloatDiv                 243      0.00%     80.83% # Class of executed instruction
system.cpu.op_class::SimdFloatMisc                  0      0.00%     80.83% # Class of executed instruction
system.cpu.op_class::SimdFloatMult              44129      0.78%     81.61% # Class of executed instruction
system.cpu.op_class::SimdFloatMultAcc               0      0.00%     81.61% # Class of executed instruction
system.cpu.op_class::SimdFloatSqrt                  0      0.00%     81.61% # Class of executed instruction
system.cpu.op_class::SimdReduceAdd                  0      0.00%     81.61% # Class of executed instruction
system.cpu.op_class::SimdReduceAlu                  0      0.00%     81.61% # Class of executed instruction
system.cpu.op_class::SimdReduceCmp                  0      0.00%     81.61% # Class of executed instruction
system.cpu.op_class::SimdFloatReduceAdd             0      0.00%     81.61% # Class of executed instruction
system.cpu.op_class::SimdFloatReduceCmp             0      0.00%     81.61% # Class of executed instruction
system.cpu.op_class::SimdAes                        0      0.00%     81.61% # Class of executed instruction
system.cpu.op_class::SimdAesMix                     0      0.00%     81.61% # Class of executed instruction
system.cpu.op_class::SimdSha1Hash                   0      0.00%     81.61% # Class of executed instruction
system.cpu.op_class::SimdSha1Hash2                  0      0.00%     81.61% # Class of executed instruction
system.cpu.op_class::SimdSha256Hash                 0      0.00%     81.61% # Class of executed instruction
system.cpu.op_class::SimdSha256Hash2                0      0.00%     81.61% # Class of executed instruction
system.cpu.op_class::SimdShaSigma2                  0      0.00%     81.61% # Class of executed instruction
system.cpu.op_class::SimdShaSigma3                  0      0.00%     81.61% # Class of executed instruction
system.cpu.op_class::SimdPredAlu                    0      0.00%     81.61% # Class of executed instruction
system.cpu.op_class::MemRead                   579430     10.26%     91.87% # Class of executed instruction
system.cpu.op_class::MemWrite                  306648      5.43%     97.30% # Class of executed instruction
system.cpu.op_class::FloatMemRead              117123      2.07%     99.37% # Class of executed instruction
system.cpu.op_class::FloatMemWrite              35510      0.63%    100.00% # Class of executed instruction
system.cpu.op_class::IprAccess                      0      0.00%    100.00% # Class of executed instruction
system.cpu.op_class::InstPrefetch                   0      0.00%    100.00% # Class of executed instruction
system.cpu.op_class::total                    5648985                       # Class of executed instruction
system.cpu.workload.numSyscalls                   246                       # Number of system calls
system.membus.snoop_filter.hit_multi_requests            0                       # Number of requests hitting in the snoop filter with multiple (>1) holders of the requested data.
system.membus.snoop_filter.hit_multi_snoops            0                       # Number of snoops hitting in the snoop filter with multiple (>1) holders of the requested data.
system.membus.snoop_filter.hit_single_requests            0                       # Number of requests hitting in the snoop filter with a single holder of the requested data.
system.membus.snoop_filter.hit_single_snoops            0                       # Number of snoops hitting in the snoop filter with a single holder of the requested data.
system.membus.snoop_filter.tot_requests             0                       # Total number of requests made to the snoop filter.
system.membus.snoop_filter.tot_snoops               0                       # Total number of snoops made to the snoop filter.
system.membus.trans_dist::ReadReq             4581176                       # Transaction distribution
system.membus.trans_dist::ReadResp            4581175                       # Transaction distribution
system.membus.trans_dist::WriteReq             342374                       # Transaction distribution
system.membus.trans_dist::WriteResp            342374                       # Transaction distribution
system.membus.trans_dist::SoftPFReq               925                       # Transaction distribution
system.membus.trans_dist::SoftPFResp              925                       # Transaction distribution
system.membus.pkt_count_system.cpu.icache_port::system.mem_ctrl.port      7768992                       # Packet count per connected master and slave (bytes)
system.membus.pkt_count_system.cpu.icache_port::total      7768992                       # Packet count per connected master and slave (bytes)
system.membus.pkt_count_system.memobj.mem_side::system.mem_ctrl.port      2079957                       # Packet count per connected master and slave (bytes)
system.membus.pkt_count_system.memobj.mem_side::total      2079957                       # Packet count per connected master and slave (bytes)
system.membus.pkt_count::total                9848949                       # Packet count per connected master and slave (bytes)
system.membus.pkt_size_system.cpu.icache_port::system.mem_ctrl.port     31075968                       # Cumulative packet size per connected master and slave (bytes)
system.membus.pkt_size_system.cpu.icache_port::total     31075968                       # Cumulative packet size per connected master and slave (bytes)
system.membus.pkt_size_system.memobj.mem_side::system.mem_ctrl.port      7259765                       # Cumulative packet size per connected master and slave (bytes)
system.membus.pkt_size_system.memobj.mem_side::total      7259765                       # Cumulative packet size per connected master and slave (bytes)
system.membus.pkt_size::total                38335733                       # Cumulative packet size per connected master and slave (bytes)
system.membus.snoops                                0                       # Total snoops (count)
system.membus.snoopTraffic                          0                       # Total snoop traffic (bytes)
system.membus.snoop_fanout::samples           4924475                       # Request fanout histogram
system.membus.snoop_fanout::mean                    0                       # Request fanout histogram
system.membus.snoop_fanout::stdev                   0                       # Request fanout histogram
system.membus.snoop_fanout::underflows              0      0.00%      0.00% # Request fanout histogram
system.membus.snoop_fanout::0                 4924475    100.00%    100.00% # Request fanout histogram
system.membus.snoop_fanout::1                       0      0.00%    100.00% # Request fanout histogram
system.membus.snoop_fanout::overflows               0      0.00%    100.00% # Request fanout histogram
system.membus.snoop_fanout::min_value               0                       # Request fanout histogram
system.membus.snoop_fanout::max_value               0                       # Request fanout histogram
system.membus.snoop_fanout::total             4924475                       # Request fanout histogram
system.membus.reqLayer2.occupancy          5266849000                       # Layer occupancy (ticks)
system.membus.reqLayer2.utilization               2.1                       # Layer utilization (%)
system.membus.respLayer1.occupancy         1958316000                       # Layer occupancy (ticks)
system.membus.respLayer1.utilization              0.8                       # Layer utilization (%)
system.membus.respLayer0.occupancy         8845884500                       # Layer occupancy (ticks)
system.membus.respLayer0.utilization              3.6                       # Layer utilization (%)
system.membus.power_state.pwrStateResidencyTicks::UNDEFINED 247061225000                       # Cumulative time (in ticks) in various power states
system.mem_ctrl.bytes_read::.cpu.inst        31075968                       # Number of bytes read from this memory
system.mem_ctrl.bytes_read::.cpu.data         4788010                       # Number of bytes read from this memory
system.mem_ctrl.bytes_read::total            35863978                       # Number of bytes read from this memory
system.mem_ctrl.bytes_inst_read::.cpu.inst     31075968                       # Number of instructions bytes read from this memory
system.mem_ctrl.bytes_inst_read::total       31075968                       # Number of instructions bytes read from this memory
system.mem_ctrl.bytes_written::.cpu.data      2471755                       # Number of bytes written to this memory
system.mem_ctrl.bytes_written::total          2471755                       # Number of bytes written to this memory
system.mem_ctrl.num_reads::.cpu.inst          3884496                       # Number of read requests responded to by this memory
system.mem_ctrl.num_reads::.cpu.data           697604                       # Number of read requests responded to by this memory
system.mem_ctrl.num_reads::total              4582100                       # Number of read requests responded to by this memory
system.mem_ctrl.num_writes::.cpu.data          342374                       # Number of write requests responded to by this memory
system.mem_ctrl.num_writes::total              342374                       # Number of write requests responded to by this memory
system.mem_ctrl.bw_read::.cpu.inst          125782457                       # Total read bandwidth from this memory (bytes/s)
system.mem_ctrl.bw_read::.cpu.data           19379852                       # Total read bandwidth from this memory (bytes/s)
system.mem_ctrl.bw_read::total              145162309                       # Total read bandwidth from this memory (bytes/s)
system.mem_ctrl.bw_inst_read::.cpu.inst     125782457                       # Instruction read bandwidth from this memory (bytes/s)
system.mem_ctrl.bw_inst_read::total         125782457                       # Instruction read bandwidth from this memory (bytes/s)
system.mem_ctrl.bw_write::.cpu.data          10004625                       # Write bandwidth from this memory (bytes/s)
system.mem_ctrl.bw_write::total              10004625                       # Write bandwidth from this memory (bytes/s)
system.mem_ctrl.bw_total::.cpu.inst         125782457                       # Total bandwidth to/from this memory (bytes/s)
system.mem_ctrl.bw_total::.cpu.data          29384477                       # Total bandwidth to/from this memory (bytes/s)
system.mem_ctrl.bw_total::total             155166935                       # Total bandwidth to/from this memory (bytes/s)
system.mem_ctrl.avgPriority_.cpu.inst::samples   3884496.00                       # Average QoS priority value for accepted requests
system.mem_ctrl.avgPriority_.cpu.data::samples    623769.00                       # Average QoS priority value for accepted requests
system.mem_ctrl.priorityMinLatency       0.000000018750                       # per QoS priority minimum request to response latency (s)
system.mem_ctrl.priorityMaxLatency       0.032619270750                       # per QoS priority maximum request to response latency (s)
system.mem_ctrl.numReadWriteTurnArounds           852                       # Number of turnarounds from READ to WRITE
system.mem_ctrl.numWriteReadTurnArounds           852                       # Number of turnarounds from WRITE to READ
system.mem_ctrl.numStayReadState              9394078                       # Number of times bus staying in READ state
system.mem_ctrl.numStayWriteState               12800                       # Number of times bus staying in WRITE state
system.mem_ctrl.readReqs                      4582101                       # Number of read requests accepted
system.mem_ctrl.writeReqs                      342374                       # Number of write requests accepted
system.mem_ctrl.readBursts                    4582101                       # Number of DRAM read bursts, including those serviced by the write queue
system.mem_ctrl.writeBursts                    342374                       # Number of DRAM write bursts, including those merged in the write queue
system.mem_ctrl.servicedByWrQ                   87513                       # Number of DRAM read bursts serviced by the write queue
system.mem_ctrl.mergedWrBursts                 328697                       # Number of DRAM write bursts merged with an existing one
system.mem_ctrl.neitherReadNorWriteReqs             0                       # Number of requests that are neither read nor write
system.mem_ctrl.perBankRdBursts::0             265181                       # Per bank write bursts
system.mem_ctrl.perBankRdBursts::1             775540                       # Per bank write bursts
system.mem_ctrl.perBankRdBursts::2             408524                       # Per bank write bursts
system.mem_ctrl.perBankRdBursts::3             374065                       # Per bank write bursts
system.mem_ctrl.perBankRdBursts::4             206296                       # Per bank write bursts
system.mem_ctrl.perBankRdBursts::5              59859                       # Per bank write bursts
system.mem_ctrl.perBankRdBursts::6             151387                       # Per bank write bursts
system.mem_ctrl.perBankRdBursts::7             101901                       # Per bank write bursts
system.mem_ctrl.perBankRdBursts::8             513689                       # Per bank write bursts
system.mem_ctrl.perBankRdBursts::9              21722                       # Per bank write bursts
system.mem_ctrl.perBankRdBursts::10             29266                       # Per bank write bursts
system.mem_ctrl.perBankRdBursts::11            534487                       # Per bank write bursts
system.mem_ctrl.perBankRdBursts::12             66096                       # Per bank write bursts
system.mem_ctrl.perBankRdBursts::13            749882                       # Per bank write bursts
system.mem_ctrl.perBankRdBursts::14            186123                       # Per bank write bursts
system.mem_ctrl.perBankRdBursts::15             50570                       # Per bank write bursts
system.mem_ctrl.perBankWrBursts::0               1823                       # Per bank write bursts
system.mem_ctrl.perBankWrBursts::1               3883                       # Per bank write bursts
system.mem_ctrl.perBankWrBursts::2                999                       # Per bank write bursts
system.mem_ctrl.perBankWrBursts::3               1105                       # Per bank write bursts
system.mem_ctrl.perBankWrBursts::4                298                       # Per bank write bursts
system.mem_ctrl.perBankWrBursts::5                379                       # Per bank write bursts
system.mem_ctrl.perBankWrBursts::6                240                       # Per bank write bursts
system.mem_ctrl.perBankWrBursts::7                216                       # Per bank write bursts
system.mem_ctrl.perBankWrBursts::8                332                       # Per bank write bursts
system.mem_ctrl.perBankWrBursts::9                293                       # Per bank write bursts
system.mem_ctrl.perBankWrBursts::10               324                       # Per bank write bursts
system.mem_ctrl.perBankWrBursts::11              1705                       # Per bank write bursts
system.mem_ctrl.perBankWrBursts::12               330                       # Per bank write bursts
system.mem_ctrl.perBankWrBursts::13               625                       # Per bank write bursts
system.mem_ctrl.perBankWrBursts::14               582                       # Per bank write bursts
system.mem_ctrl.perBankWrBursts::15               511                       # Per bank write bursts
system.mem_ctrl.avgRdQLen                        1.00                       # Average read queue length when enqueuing
system.mem_ctrl.avgWrQLen                       26.78                       # Average write queue length when enqueuing
system.mem_ctrl.totQLat                   17764992250                       # Total ticks spent queuing
system.mem_ctrl.totBusLat                 22472940000                       # Total ticks spent in databus transfers
system.mem_ctrl.totMemAccLat             102038517250                       # Total ticks spent from burst creation until serviced by the DRAM
system.mem_ctrl.avgQLat                       3952.53                       # Average queueing delay per DRAM burst
system.mem_ctrl.avgBusLat                     5000.00                       # Average bus latency per DRAM burst
system.mem_ctrl.avgMemAccLat                 22702.53                       # Average memory access latency per DRAM burst
system.mem_ctrl.numRdRetry                          0                       # Number of times read queue was full causing retry
system.mem_ctrl.numWrRetry                          0                       # Number of times write queue was full causing retry
system.mem_ctrl.readRowHits                   3956899                       # Number of row buffer hits during reads
system.mem_ctrl.writeRowHits                    11975                       # Number of row buffer hits during writes
system.mem_ctrl.readRowHitRate                  88.04                       # Row buffer hit rate for reads
system.mem_ctrl.writeRowHitRate                 87.56                       # Row buffer hit rate for writes
system.mem_ctrl.readPktSize::0                  64398                       # Read request sizes (log2)
system.mem_ctrl.readPktSize::1                   8965                       # Read request sizes (log2)
system.mem_ctrl.readPktSize::2                  71569                       # Read request sizes (log2)
system.mem_ctrl.readPktSize::3                4437169                       # Read request sizes (log2)
system.mem_ctrl.readPktSize::4                      0                       # Read request sizes (log2)
system.mem_ctrl.readPktSize::5                      0                       # Read request sizes (log2)
system.mem_ctrl.readPktSize::6                      0                       # Read request sizes (log2)
system.mem_ctrl.writePktSize::0                 16027                       # Write request sizes (log2)
system.mem_ctrl.writePktSize::1                  1300                       # Write request sizes (log2)
system.mem_ctrl.writePktSize::2                 36708                       # Write request sizes (log2)
system.mem_ctrl.writePktSize::3                288339                       # Write request sizes (log2)
system.mem_ctrl.writePktSize::4                     0                       # Write request sizes (log2)
system.mem_ctrl.writePktSize::5                     0                       # Write request sizes (log2)
system.mem_ctrl.writePktSize::6                     0                       # Write request sizes (log2)
system.mem_ctrl.rdQLenPdf::0                  4493749                       # What read queue length does an incoming req see
system.mem_ctrl.rdQLenPdf::1                      839                       # What read queue length does an incoming req see
system.mem_ctrl.rdQLenPdf::2                        0                       # What read queue length does an incoming req see
system.mem_ctrl.rdQLenPdf::3                        0                       # What read queue length does an incoming req see
system.mem_ctrl.rdQLenPdf::4                        0                       # What read queue length does an incoming req see
system.mem_ctrl.rdQLenPdf::5                        0                       # What read queue length does an incoming req see
system.mem_ctrl.rdQLenPdf::6                        0                       # What read queue length does an incoming req see
system.mem_ctrl.rdQLenPdf::7                        0                       # What read queue length does an incoming req see
system.mem_ctrl.rdQLenPdf::8                        0                       # What read queue length does an incoming req see
system.mem_ctrl.rdQLenPdf::9                        0                       # What read queue length does an incoming req see
system.mem_ctrl.rdQLenPdf::10                       0                       # What read queue length does an incoming req see
system.mem_ctrl.rdQLenPdf::11                       0                       # What read queue length does an incoming req see
system.mem_ctrl.rdQLenPdf::12                       0                       # What read queue length does an incoming req see
system.mem_ctrl.rdQLenPdf::13                       0                       # What read queue length does an incoming req see
system.mem_ctrl.rdQLenPdf::14                       0                       # What read queue length does an incoming req see
system.mem_ctrl.rdQLenPdf::15                       0                       # What read queue length does an incoming req see
system.mem_ctrl.rdQLenPdf::16                       0                       # What read queue length does an incoming req see
system.mem_ctrl.rdQLenPdf::17                       0                       # What read queue length does an incoming req see
system.mem_ctrl.rdQLenPdf::18                       0                       # What read queue length does an incoming req see
system.mem_ctrl.rdQLenPdf::19                       0                       # What read queue length does an incoming req see
system.mem_ctrl.rdQLenPdf::20                       0                       # What read queue length does an incoming req see
system.mem_ctrl.rdQLenPdf::21                       0                       # What read queue length does an incoming req see
system.mem_ctrl.rdQLenPdf::22                       0                       # What read queue length does an incoming req see
system.mem_ctrl.rdQLenPdf::23                       0                       # What read queue length does an incoming req see
system.mem_ctrl.rdQLenPdf::24                       0                       # What read queue length does an incoming req see
system.mem_ctrl.rdQLenPdf::25                       0                       # What read queue length does an incoming req see
system.mem_ctrl.rdQLenPdf::26                       0                       # What read queue length does an incoming req see
system.mem_ctrl.rdQLenPdf::27                       0                       # What read queue length does an incoming req see
system.mem_ctrl.rdQLenPdf::28                       0                       # What read queue length does an incoming req see
system.mem_ctrl.rdQLenPdf::29                       0                       # What read queue length does an incoming req see
system.mem_ctrl.rdQLenPdf::30                       0                       # What read queue length does an incoming req see
system.mem_ctrl.rdQLenPdf::31                       0                       # What read queue length does an incoming req see
system.mem_ctrl.wrQLenPdf::0                        1                       # What write queue length does an incoming req see
system.mem_ctrl.wrQLenPdf::1                        1                       # What write queue length does an incoming req see
system.mem_ctrl.wrQLenPdf::2                        1                       # What write queue length does an incoming req see
system.mem_ctrl.wrQLenPdf::3                        1                       # What write queue length does an incoming req see
system.mem_ctrl.wrQLenPdf::4                        1                       # What write queue length does an incoming req see
system.mem_ctrl.wrQLenPdf::5                        1                       # What write queue length does an incoming req see
system.mem_ctrl.wrQLenPdf::6                        1                       # What write queue length does an incoming req see
system.mem_ctrl.wrQLenPdf::7                        1                       # What write queue length does an incoming req see
system.mem_ctrl.wrQLenPdf::8                        1                       # What write queue length does an incoming req see
system.mem_ctrl.wrQLenPdf::9                        1                       # What write queue length does an incoming req see
system.mem_ctrl.wrQLenPdf::10                       1                       # What write queue length does an incoming req see
system.mem_ctrl.wrQLenPdf::11                       1                       # What write queue length does an incoming req see
system.mem_ctrl.wrQLenPdf::12                       1                       # What write queue length does an incoming req see
system.mem_ctrl.wrQLenPdf::13                       1                       # What write queue length does an incoming req see
system.mem_ctrl.wrQLenPdf::14                       1                       # What write queue length does an incoming req see
system.mem_ctrl.wrQLenPdf::15                       6                       # What write queue length does an incoming req see
system.mem_ctrl.wrQLenPdf::16                       7                       # What write queue length does an incoming req see
system.mem_ctrl.wrQLenPdf::17                     853                       # What write queue length does an incoming req see
system.mem_ctrl.wrQLenPdf::18                     853                       # What write queue length does an incoming req see
system.mem_ctrl.wrQLenPdf::19                     853                       # What write queue length does an incoming req see
system.mem_ctrl.wrQLenPdf::20                     854                       # What write queue length does an incoming req see
system.mem_ctrl.wrQLenPdf::21                     853                       # What write queue length does an incoming req see
system.mem_ctrl.wrQLenPdf::22                     853                       # What write queue length does an incoming req see
system.mem_ctrl.wrQLenPdf::23                     854                       # What write queue length does an incoming req see
system.mem_ctrl.wrQLenPdf::24                     853                       # What write queue length does an incoming req see
system.mem_ctrl.wrQLenPdf::25                     853                       # What write queue length does an incoming req see
system.mem_ctrl.wrQLenPdf::26                     853                       # What write queue length does an incoming req see
system.mem_ctrl.wrQLenPdf::27                     853                       # What write queue length does an incoming req see
system.mem_ctrl.wrQLenPdf::28                     853                       # What write queue length does an incoming req see
system.mem_ctrl.wrQLenPdf::29                     853                       # What write queue length does an incoming req see
system.mem_ctrl.wrQLenPdf::30                     853                       # What write queue length does an incoming req see
system.mem_ctrl.wrQLenPdf::31                     853                       # What write queue length does an incoming req see
system.mem_ctrl.wrQLenPdf::32                     852                       # What write queue length does an incoming req see
system.mem_ctrl.wrQLenPdf::33                       0                       # What write queue length does an incoming req see
system.mem_ctrl.wrQLenPdf::34                       0                       # What write queue length does an incoming req see
system.mem_ctrl.wrQLenPdf::35                       0                       # What write queue length does an incoming req see
system.mem_ctrl.wrQLenPdf::36                       0                       # What write queue length does an incoming req see
system.mem_ctrl.wrQLenPdf::37                       0                       # What write queue length does an incoming req see
system.mem_ctrl.wrQLenPdf::38                       0                       # What write queue length does an incoming req see
system.mem_ctrl.wrQLenPdf::39                       0                       # What write queue length does an incoming req see
system.mem_ctrl.wrQLenPdf::40                       0                       # What write queue length does an incoming req see
system.mem_ctrl.wrQLenPdf::41                       0                       # What write queue length does an incoming req see
system.mem_ctrl.wrQLenPdf::42                       0                       # What write queue length does an incoming req see
system.mem_ctrl.wrQLenPdf::43                       0                       # What write queue length does an incoming req see
system.mem_ctrl.wrQLenPdf::44                       0                       # What write queue length does an incoming req see
system.mem_ctrl.wrQLenPdf::45                       0                       # What write queue length does an incoming req see
system.mem_ctrl.wrQLenPdf::46                       0                       # What write queue length does an incoming req see
system.mem_ctrl.wrQLenPdf::47                       0                       # What write queue length does an incoming req see
system.mem_ctrl.wrQLenPdf::48                       0                       # What write queue length does an incoming req see
system.mem_ctrl.wrQLenPdf::49                       0                       # What write queue length does an incoming req see
system.mem_ctrl.wrQLenPdf::50                       0                       # What write queue length does an incoming req see
system.mem_ctrl.wrQLenPdf::51                       0                       # What write queue length does an incoming req see
system.mem_ctrl.wrQLenPdf::52                       0                       # What write queue length does an incoming req see
system.mem_ctrl.wrQLenPdf::53                       0                       # What write queue length does an incoming req see
system.mem_ctrl.wrQLenPdf::54                       0                       # What write queue length does an incoming req see
system.mem_ctrl.wrQLenPdf::55                       0                       # What write queue length does an incoming req see
system.mem_ctrl.wrQLenPdf::56                       0                       # What write queue length does an incoming req see
system.mem_ctrl.wrQLenPdf::57                       0                       # What write queue length does an incoming req see
system.mem_ctrl.wrQLenPdf::58                       0                       # What write queue length does an incoming req see
system.mem_ctrl.wrQLenPdf::59                       0                       # What write queue length does an incoming req see
system.mem_ctrl.wrQLenPdf::60                       0                       # What write queue length does an incoming req see
system.mem_ctrl.wrQLenPdf::61                       0                       # What write queue length does an incoming req see
system.mem_ctrl.wrQLenPdf::62                       0                       # What write queue length does an incoming req see
system.mem_ctrl.wrQLenPdf::63                       0                       # What write queue length does an incoming req see
system.mem_ctrl.bytesPerActivate::samples       539355                       # Bytes accessed per row activation
system.mem_ctrl.bytesPerActivate::mean     534.946282                       # Bytes accessed per row activation
system.mem_ctrl.bytesPerActivate::gmean    324.975438                       # Bytes accessed per row activation
system.mem_ctrl.bytesPerActivate::stdev    409.086929                       # Bytes accessed per row activation
system.mem_ctrl.bytesPerActivate::0-127        137117     25.42%     25.42% # Bytes accessed per row activation
system.mem_ctrl.bytesPerActivate::128-255        65287     12.10%     37.53% # Bytes accessed per row activation
system.mem_ctrl.bytesPerActivate::256-383        35249      6.54%     44.06% # Bytes accessed per row activation
system.mem_ctrl.bytesPerActivate::384-511        31048      5.76%     49.82% # Bytes accessed per row activation
system.mem_ctrl.bytesPerActivate::512-639        31799      5.90%     55.71% # Bytes accessed per row activation
system.mem_ctrl.bytesPerActivate::640-767        24087      4.47%     60.18% # Bytes accessed per row activation
system.mem_ctrl.bytesPerActivate::768-895        21282      3.95%     64.13% # Bytes accessed per row activation
system.mem_ctrl.bytesPerActivate::896-1023        14382      2.67%     66.79% # Bytes accessed per row activation
system.mem_ctrl.bytesPerActivate::1024-1151       179104     33.21%    100.00% # Bytes accessed per row activation
system.mem_ctrl.bytesPerActivate::total        539355                       # Bytes accessed per row activation
system.mem_ctrl.rdPerTurnAround::samples          852                       # Reads before turning the bus around for writes
system.mem_ctrl.rdPerTurnAround::mean     5272.929577                       # Reads before turning the bus around for writes
system.mem_ctrl.rdPerTurnAround::gmean    2396.016010                       # Reads before turning the bus around for writes
system.mem_ctrl.rdPerTurnAround::stdev    8997.660018                       # Reads before turning the bus around for writes
system.mem_ctrl.rdPerTurnAround::0-4095           637     74.77%     74.77% # Reads before turning the bus around for writes
system.mem_ctrl.rdPerTurnAround::4096-8191           78      9.15%     83.92% # Reads before turning the bus around for writes
system.mem_ctrl.rdPerTurnAround::8192-12287           40      4.69%     88.62% # Reads before turning the bus around for writes
system.mem_ctrl.rdPerTurnAround::12288-16383           21      2.46%     91.08% # Reads before turning the bus around for writes
system.mem_ctrl.rdPerTurnAround::16384-20479           20      2.35%     93.43% # Reads before turning the bus around for writes
system.mem_ctrl.rdPerTurnAround::20480-24575           17      2.00%     95.42% # Reads before turning the bus around for writes
system.mem_ctrl.rdPerTurnAround::24576-28671           14      1.64%     97.07% # Reads before turning the bus around for writes
system.mem_ctrl.rdPerTurnAround::28672-32767            4      0.47%     97.54% # Reads before turning the bus around for writes
system.mem_ctrl.rdPerTurnAround::32768-36863            3      0.35%     97.89% # Reads before turning the bus around for writes
system.mem_ctrl.rdPerTurnAround::36864-40959            3      0.35%     98.24% # Reads before turning the bus around for writes
system.mem_ctrl.rdPerTurnAround::40960-45055            2      0.23%     98.47% # Reads before turning the bus around for writes
system.mem_ctrl.rdPerTurnAround::45056-49151            6      0.70%     99.18% # Reads before turning the bus around for writes
system.mem_ctrl.rdPerTurnAround::49152-53247            3      0.35%     99.53% # Reads before turning the bus around for writes
system.mem_ctrl.rdPerTurnAround::53248-57343            1      0.12%     99.65% # Reads before turning the bus around for writes
system.mem_ctrl.rdPerTurnAround::65536-69631            2      0.23%     99.88% # Reads before turning the bus around for writes
system.mem_ctrl.rdPerTurnAround::73728-77823            1      0.12%    100.00% # Reads before turning the bus around for writes
system.mem_ctrl.rdPerTurnAround::total            852                       # Reads before turning the bus around for writes
system.mem_ctrl.wrPerTurnAround::samples          852                       # Writes before turning the bus around for reads
system.mem_ctrl.wrPerTurnAround::mean       16.015258                       # Writes before turning the bus around for reads
system.mem_ctrl.wrPerTurnAround::gmean      16.013960                       # Writes before turning the bus around for reads
system.mem_ctrl.wrPerTurnAround::stdev       0.218965                       # Writes before turning the bus around for reads
system.mem_ctrl.wrPerTurnAround::16               847     99.41%     99.41% # Writes before turning the bus around for reads
system.mem_ctrl.wrPerTurnAround::18                 4      0.47%     99.88% # Writes before turning the bus around for reads
system.mem_ctrl.wrPerTurnAround::21                 1      0.12%    100.00% # Writes before turning the bus around for reads
system.mem_ctrl.wrPerTurnAround::total            852                       # Writes before turning the bus around for reads
system.mem_ctrl.bytesReadDRAM               287653632                       # Total number of bytes read from DRAM
system.mem_ctrl.bytesReadWrQ                  5600832                       # Total number of bytes read from write queue
system.mem_ctrl.bytesWritten                   873280                       # Total number of bytes written to DRAM
system.mem_ctrl.bytesReadSys                 35863986                       # Total read bytes from the system interface side
system.mem_ctrl.bytesWrittenSys               2471755                       # Total written bytes from the system interface side
system.mem_ctrl.avgRdBW                       1164.30                       # Average DRAM read bandwidth in MiByte/s
system.mem_ctrl.avgWrBW                          3.53                       # Average achieved write bandwidth in MiByte/s
system.mem_ctrl.avgRdBWSys                     145.16                       # Average system read bandwidth in MiByte/s
system.mem_ctrl.avgWrBWSys                      10.00                       # Average system write bandwidth in MiByte/s
system.mem_ctrl.peakBW                       12800.00                       # Theoretical peak bandwidth in MiByte/s
system.mem_ctrl.busUtil                          9.12                       # Data bus utilization in percentage
system.mem_ctrl.busUtilRead                      9.10                       # Data bus utilization in percentage for reads
system.mem_ctrl.busUtilWrite                     0.03                       # Data bus utilization in percentage for writes
system.mem_ctrl.totGap                   247061148000                       # Total gap between requests
system.mem_ctrl.avgGap                       50170.05                       # Average gap between requests
system.mem_ctrl.masterReadBytes::.cpu.inst     31075968                       # Per-master bytes read from memory
system.mem_ctrl.masterReadBytes::.cpu.data      4227745                       # Per-master bytes read from memory
system.mem_ctrl.masterWriteBytes::.cpu.data       100329                       # Per-master bytes write to memory
system.mem_ctrl.masterReadRate::.cpu.inst 125782457.364566221833                       # Per-master bytes read from memory rate (Bytes/sec)
system.mem_ctrl.masterReadRate::.cpu.data 17112134.856451068074                       # Per-master bytes read from memory rate (Bytes/sec)
system.mem_ctrl.masterWriteRate::.cpu.data 406089.624140736763                       # Per-master bytes write to memory rate (Bytes/sec)
system.mem_ctrl.masterReadAccesses::.cpu.inst      3884496                       # Per-master read serviced memory accesses
system.mem_ctrl.masterReadAccesses::.cpu.data       697605                       # Per-master read serviced memory accesses
system.mem_ctrl.masterWriteAccesses::.cpu.data       342374                       # Per-master write serviced memory accesses
system.mem_ctrl.masterReadTotalLat::.cpu.inst  85763574500                       # Per-master read total memory access latency
system.mem_ctrl.masterReadTotalLat::.cpu.data  16274942750                       # Per-master read total memory access latency
system.mem_ctrl.masterWriteTotalLat::.cpu.data 6558551329500                       # Per-master write total memory access latency
system.mem_ctrl.masterReadAvgLat::.cpu.inst     22078.43                       # Per-master read average memory access latency
system.mem_ctrl.masterReadAvgLat::.cpu.data     23329.74                       # Per-master read average memory access latency
system.mem_ctrl.masterWriteAvgLat::.cpu.data  19156102.19                       # Per-master write average memory access latency
system.mem_ctrl.pageHitRate                     88.04                       # Row buffer hit rate, read and write combined
system.mem_ctrl.rank1.actEnergy            1714671000                       # Energy for activate commands per rank (pJ)
system.mem_ctrl.rank1.preEnergy             911365455                       # Energy for precharge commands per rank (pJ)
system.mem_ctrl.rank1.readEnergy          15364101900                       # Energy for read commands per rank (pJ)
system.mem_ctrl.rank1.writeEnergy            24544440                       # Energy for write commands per rank (pJ)
system.mem_ctrl.rank1.refreshEnergy      19502527200.000004                       # Energy for refresh commands per rank (pJ)
system.mem_ctrl.rank1.actBackEnergy       99199798380                       # Energy for active background per rank (pJ)
system.mem_ctrl.rank1.preBackEnergy       11334838080                       # Energy for precharge background per rank (pJ)
system.mem_ctrl.rank1.actPowerDownEnergy            0                       # Energy for active power-down per rank (pJ)
system.mem_ctrl.rank1.prePowerDownEnergy            0                       # Energy for precharge power-down per rank (pJ)
system.mem_ctrl.rank1.selfRefreshEnergy             0                       # Energy for self refresh per rank (pJ)
system.mem_ctrl.rank1.totalEnergy        148051846455                       # Total energy per rank (pJ)
system.mem_ctrl.rank1.averagePower         599.251649                       # Core power per rank (mW)
system.mem_ctrl.rank1.totalIdleTime                 0                       # Total Idle time Per DRAM Rank
system.mem_ctrl.rank1.memoryStateTime::IDLE  28409946000                       # Time in different power states
system.mem_ctrl.rank1.memoryStateTime::REF   8249800000                       # Time in different power states
system.mem_ctrl.rank1.memoryStateTime::SREF            0                       # Time in different power states
system.mem_ctrl.rank1.memoryStateTime::PRE_PDN            0                       # Time in different power states
system.mem_ctrl.rank1.memoryStateTime::ACT 210401479000                       # Time in different power states
system.mem_ctrl.rank1.memoryStateTime::ACT_PDN            0                       # Time in different power states
system.mem_ctrl.rank0.actEnergy            2136352260                       # Energy for activate commands per rank (pJ)
system.mem_ctrl.rank0.preEnergy            1135486770                       # Energy for precharge commands per rank (pJ)
system.mem_ctrl.rank0.readEnergy          16727256420                       # Energy for read commands per rank (pJ)
system.mem_ctrl.rank0.writeEnergy            46682460                       # Energy for write commands per rank (pJ)
system.mem_ctrl.rank0.refreshEnergy      19502527200.000004                       # Energy for refresh commands per rank (pJ)
system.mem_ctrl.rank0.actBackEnergy      105303130380                       # Energy for active background per rank (pJ)
system.mem_ctrl.rank0.preBackEnergy        6195190080                       # Energy for precharge background per rank (pJ)
system.mem_ctrl.rank0.actPowerDownEnergy            0                       # Energy for active power-down per rank (pJ)
system.mem_ctrl.rank0.prePowerDownEnergy            0                       # Energy for precharge power-down per rank (pJ)
system.mem_ctrl.rank0.selfRefreshEnergy             0                       # Energy for self refresh per rank (pJ)
system.mem_ctrl.rank0.totalEnergy        151046625570                       # Total energy per rank (pJ)
system.mem_ctrl.rank0.averagePower         611.373256                       # Core power per rank (mW)
system.mem_ctrl.rank0.totalIdleTime                 0                       # Total Idle time Per DRAM Rank
system.mem_ctrl.rank0.memoryStateTime::IDLE  14707202250                       # Time in different power states
system.mem_ctrl.rank0.memoryStateTime::REF   8249800000                       # Time in different power states
system.mem_ctrl.rank0.memoryStateTime::SREF            0                       # Time in different power states
system.mem_ctrl.rank0.memoryStateTime::PRE_PDN            0                       # Time in different power states
system.mem_ctrl.rank0.memoryStateTime::ACT 224104222750                       # Time in different power states
system.mem_ctrl.rank0.memoryStateTime::ACT_PDN            0                       # Time in different power states
system.mem_ctrl.power_state.pwrStateResidencyTicks::UNDEFINED 247061225000                       # Cumulative time (in ticks) in various power states
system.cache.blocked_cycles::no_mshrs               0                       # number of cycles access was blocked
system.cache.blocked_cycles::no_targets             0                       # number of cycles access was blocked
system.cache.blocked::no_mshrs                      0                       # number of cycles access was blocked
system.cache.blocked::no_targets                    0                       # number of cycles access was blocked
system.cache.avg_blocked_cycles::no_mshrs          nan                       # average number of cycles each access was blocked
system.cache.avg_blocked_cycles::no_targets          nan                       # average number of cycles each access was blocked
system.cache.replacements                           0                       # number of replacements
system.cache.power_state.pwrStateResidencyTicks::UNDEFINED 247061225000                       # Cumulative time (in ticks) in various power states
system.cache.tags.tagsinuse                         0                       # Cycle average of tags in use
system.cache.tags.total_refs                        0                       # Total number of references to valid blocks.
system.cache.tags.sampled_refs                      0                       # Sample count of references to valid blocks.
system.cache.tags.avg_refs                        nan                       # Average number of references to valid blocks.
system.cache.tags.warmup_cycle                      0                       # Cycle when the warmup percentage was hit.
system.cache.tags.tag_accesses                      0                       # Number of tag accesses
system.cache.tags.data_accesses                     0                       # Number of data accesses
system.cache.tags.power_state.pwrStateResidencyTicks::UNDEFINED 247061225000                       # Cumulative time (in ticks) in various power states
system.clk_domain.clock                          1000                       # Clock period in ticks
system.clk_domain.voltage_domain.voltage            1                       # Voltage in Volts
system.cachebus.snoops                              0                       # Total snoops (count)
system.cachebus.snoopTraffic                        0                       # Total snoop traffic (bytes)
system.cachebus.snoop_fanout::samples               0                       # Request fanout histogram
system.cachebus.snoop_fanout::mean                nan                       # Request fanout histogram
system.cachebus.snoop_fanout::stdev               nan                       # Request fanout histogram
system.cachebus.snoop_fanout::underflows            0                       # Request fanout histogram
system.cachebus.snoop_fanout::0                     0                       # Request fanout histogram
system.cachebus.snoop_fanout::overflows             0                       # Request fanout histogram
system.cachebus.snoop_fanout::min_value             0                       # Request fanout histogram
system.cachebus.snoop_fanout::max_value             0                       # Request fanout histogram
system.cachebus.snoop_fanout::total                 0                       # Request fanout histogram
system.cachebus.power_state.pwrStateResidencyTicks::UNDEFINED 247061225000                       # Cumulative time (in ticks) in various power states
system.cpu.dtb.walker.power_state.pwrStateResidencyTicks::UNDEFINED 247061225000                       # Cumulative time (in ticks) in various power states
system.cpu.interrupts.clk_domain.clock          16000                       # Clock period in ticks
system.cpu.itb.walker.power_state.pwrStateResidencyTicks::UNDEFINED 247061225000                       # Cumulative time (in ticks) in various power states
system.cpu.power_state.numTransitions               1                       # Number of power state transitions
system.cpu.power_state.pwrStateResidencyTicks::ON 247061225000                       # Cumulative time (in ticks) in various power states

---------- End Simulation Statistics   ----------
