
---------- Begin Simulation Statistics ----------
final_tick                                12571681000                       # Number of ticks from beginning of simulation (restored from checkpoints and never reset)
host_inst_rate                                 119049                       # Simulator instruction rate (inst/s)
host_mem_usage                                1275948                       # Number of bytes of host memory used
host_op_rate                                   141593                       # Simulator op (including micro ops) rate (op/s)
host_seconds                                     8.40                       # Real time elapsed on the host
host_tick_rate                             1496597898                       # Simulator tick rate (ticks/s)
sim_freq                                 1000000000000                       # Frequency of simulated ticks
sim_insts                                     1000002                       # Number of instructions simulated
sim_ops                                       1189396                       # Number of ops (including micro ops) simulated
sim_seconds                                  0.012572                       # Number of seconds simulated
sim_ticks                                 12571681000                       # Number of ticks simulated
system.cpu.Branches                             47286                       # Number of branches fetched
system.cpu.committedInsts                     1000002                       # Number of instructions committed
system.cpu.committedOps                       1189396                       # Number of ops (including micro ops) committed
system.cpu.dtb.rdAccesses                        4335                       # TLB accesses on read requests
system.cpu.dtb.rdMisses                            16                       # TLB misses on read requests
system.cpu.dtb.wrAccesses                      858060                       # TLB accesses on write requests
system.cpu.dtb.wrMisses                          3347                       # TLB misses on write requests
system.cpu.idle_fraction                            0                       # Percentage of idle cycles
system.cpu.itb.rdAccesses                           0                       # TLB accesses on read requests
system.cpu.itb.rdMisses                             0                       # TLB misses on read requests
system.cpu.itb.wrAccesses                     1563668                       # TLB accesses on write requests
system.cpu.itb.wrMisses                            47                       # TLB misses on write requests
system.cpu.not_idle_fraction                        1                       # Percentage of non-idle cycles
system.cpu.numCycles                         12571670                       # number of cpu cycles simulated
system.cpu.numWorkItemsCompleted                    0                       # number of work items this cpu completed
system.cpu.numWorkItemsStarted                      0                       # number of work items this cpu started
system.cpu.num_busy_cycles                   12571670                       # Number of busy cycles
system.cpu.num_cc_register_reads               235911                       # number of times the CC registers were read
system.cpu.num_cc_register_writes              181814                       # number of times the CC registers were written
system.cpu.num_conditional_control_insts        46287                       # number of instructions that are conditional controls
system.cpu.num_fp_alu_accesses                 811640                       # Number of float alu accesses
system.cpu.num_fp_insts                        811640                       # number of float instructions
system.cpu.num_fp_register_reads               812152                       # number of times the floating registers were read
system.cpu.num_fp_register_writes                 609                       # number of times the floating registers were written
system.cpu.num_func_calls                         651                       # number of times a function call or return occured
system.cpu.num_idle_cycles                          0                       # Number of idle cycles
system.cpu.num_int_alu_accesses               1190348                       # Number of integer alu accesses
system.cpu.num_int_insts                      1190348                       # number of integer instructions
system.cpu.num_int_register_reads             3021944                       # number of times the integer registers were read
system.cpu.num_int_register_writes             285190                       # number of times the integer registers were written
system.cpu.num_load_insts                        4320                       # Number of load instructions
system.cpu.num_mem_refs                        862379                       # number of memory refs
system.cpu.num_store_insts                     858059                       # Number of store instructions
system.cpu.num_vec_alu_accesses                     0                       # Number of vector alu accesses
system.cpu.num_vec_insts                            0                       # number of vector instructions
system.cpu.num_vec_register_reads                   0                       # number of times the vector registers were read
system.cpu.num_vec_register_writes                  0                       # number of times the vector registers were written
system.cpu.op_class::No_OpClass                   186      0.02%      0.02% # Class of executed instruction
system.cpu.op_class::IntAlu                    327851     27.53%     27.54% # Class of executed instruction
system.cpu.op_class::IntMult                       29      0.00%     27.54% # Class of executed instruction
system.cpu.op_class::IntDiv                        70      0.01%     27.55% # Class of executed instruction
system.cpu.op_class::FloatAdd                      19      0.00%     27.55% # Class of executed instruction
system.cpu.op_class::FloatCmp                       0      0.00%     27.55% # Class of executed instruction
system.cpu.op_class::FloatCvt                       0      0.00%     27.55% # Class of executed instruction
system.cpu.op_class::FloatMult                      0      0.00%     27.55% # Class of executed instruction
system.cpu.op_class::FloatMultAcc                   0      0.00%     27.55% # Class of executed instruction
system.cpu.op_class::FloatDiv                       0      0.00%     27.55% # Class of executed instruction
system.cpu.op_class::FloatMisc                      0      0.00%     27.55% # Class of executed instruction
system.cpu.op_class::FloatSqrt                      0      0.00%     27.55% # Class of executed instruction
system.cpu.op_class::SimdAdd                        0      0.00%     27.55% # Class of executed instruction
system.cpu.op_class::SimdAddAcc                     0      0.00%     27.55% # Class of executed instruction
system.cpu.op_class::SimdAlu                      152      0.01%     27.56% # Class of executed instruction
system.cpu.op_class::SimdCmp                        0      0.00%     27.56% # Class of executed instruction
system.cpu.op_class::SimdCvt                      158      0.01%     27.58% # Class of executed instruction
system.cpu.op_class::SimdMisc                     221      0.02%     27.60% # Class of executed instruction
system.cpu.op_class::SimdMult                       0      0.00%     27.60% # Class of executed instruction
system.cpu.op_class::SimdMultAcc                    0      0.00%     27.60% # Class of executed instruction
system.cpu.op_class::SimdShift                      0      0.00%     27.60% # Class of executed instruction
system.cpu.op_class::SimdShiftAcc                   0      0.00%     27.60% # Class of executed instruction
system.cpu.op_class::SimdDiv                        0      0.00%     27.60% # Class of executed instruction
system.cpu.op_class::SimdSqrt                       0      0.00%     27.60% # Class of executed instruction
system.cpu.op_class::SimdFloatAdd                   0      0.00%     27.60% # Class of executed instruction
system.cpu.op_class::SimdFloatAlu                   0      0.00%     27.60% # Class of executed instruction
system.cpu.op_class::SimdFloatCmp                   0      0.00%     27.60% # Class of executed instruction
system.cpu.op_class::SimdFloatCvt                   2      0.00%     27.60% # Class of executed instruction
system.cpu.op_class::SimdFloatDiv                   0      0.00%     27.60% # Class of executed instruction
system.cpu.op_class::SimdFloatMisc                  0      0.00%     27.60% # Class of executed instruction
system.cpu.op_class::SimdFloatMult                  0      0.00%     27.60% # Class of executed instruction
system.cpu.op_class::SimdFloatMultAcc               0      0.00%     27.60% # Class of executed instruction
system.cpu.op_class::SimdFloatSqrt                  0      0.00%     27.60% # Class of executed instruction
system.cpu.op_class::SimdReduceAdd                  0      0.00%     27.60% # Class of executed instruction
system.cpu.op_class::SimdReduceAlu                  0      0.00%     27.60% # Class of executed instruction
system.cpu.op_class::SimdReduceCmp                  0      0.00%     27.60% # Class of executed instruction
system.cpu.op_class::SimdFloatReduceAdd             0      0.00%     27.60% # Class of executed instruction
system.cpu.op_class::SimdFloatReduceCmp             0      0.00%     27.60% # Class of executed instruction
system.cpu.op_class::SimdAes                        0      0.00%     27.60% # Class of executed instruction
system.cpu.op_class::SimdAesMix                     0      0.00%     27.60% # Class of executed instruction
system.cpu.op_class::SimdSha1Hash                   0      0.00%     27.60% # Class of executed instruction
system.cpu.op_class::SimdSha1Hash2                  0      0.00%     27.60% # Class of executed instruction
system.cpu.op_class::SimdSha256Hash                 0      0.00%     27.60% # Class of executed instruction
system.cpu.op_class::SimdSha256Hash2                0      0.00%     27.60% # Class of executed instruction
system.cpu.op_class::SimdShaSigma2                  0      0.00%     27.60% # Class of executed instruction
system.cpu.op_class::SimdShaSigma3                  0      0.00%     27.60% # Class of executed instruction
system.cpu.op_class::SimdPredAlu                    0      0.00%     27.60% # Class of executed instruction
system.cpu.op_class::MemRead                     4218      0.35%     27.95% # Class of executed instruction
system.cpu.op_class::MemWrite                   47139      3.96%     31.91% # Class of executed instruction
system.cpu.op_class::FloatMemRead                 102      0.01%     31.92% # Class of executed instruction
system.cpu.op_class::FloatMemWrite             810920     68.08%    100.00% # Class of executed instruction
system.cpu.op_class::IprAccess                      0      0.00%    100.00% # Class of executed instruction
system.cpu.op_class::InstPrefetch                   0      0.00%    100.00% # Class of executed instruction
system.cpu.op_class::total                    1191067                       # Class of executed instruction
system.cpu.workload.numSyscalls                    19                       # Number of system calls
system.dynamic_cache.flushTicks                     0                       # Ticks taken to flush
system.dynamic_cache.numFlushes                     0                       # Number of Flushes Taken
system.cache_small.blocked_cycles::no_mshrs            0                       # number of cycles access was blocked
system.cache_small.blocked_cycles::no_targets            0                       # number of cycles access was blocked
system.cache_small.blocked::no_mshrs                0                       # number of cycles access was blocked
system.cache_small.blocked::no_targets              0                       # number of cycles access was blocked
system.cache_small.avg_blocked_cycles::no_mshrs          nan                       # average number of cycles each access was blocked
system.cache_small.avg_blocked_cycles::no_targets          nan                       # average number of cycles each access was blocked
system.cache_small.replacements                     0                       # number of replacements
system.cache_small.power_state.pwrStateResidencyTicks::UNDEFINED  12571681000                       # Cumulative time (in ticks) in various power states
system.cache_small.tags.tagsinuse                   0                       # Cycle average of tags in use
system.cache_small.tags.total_refs                  0                       # Total number of references to valid blocks.
system.cache_small.tags.sampled_refs                0                       # Sample count of references to valid blocks.
system.cache_small.tags.avg_refs                  nan                       # Average number of references to valid blocks.
system.cache_small.tags.warmup_cycle                0                       # Cycle when the warmup percentage was hit.
system.cache_small.tags.tag_accesses                0                       # Number of tag accesses
system.cache_small.tags.data_accesses               0                       # Number of data accesses
system.cache_small.tags.power_state.pwrStateResidencyTicks::UNDEFINED  12571681000                       # Cumulative time (in ticks) in various power states
system.icache.demand_hits::.cpu.inst          1563029                       # number of demand (read+write) hits
system.icache.demand_hits::total              1563029                       # number of demand (read+write) hits
system.icache.overall_hits::.cpu.inst         1563029                       # number of overall hits
system.icache.overall_hits::total             1563029                       # number of overall hits
system.icache.demand_misses::.cpu.inst            639                       # number of demand (read+write) misses
system.icache.demand_misses::total                639                       # number of demand (read+write) misses
system.icache.overall_misses::.cpu.inst           639                       # number of overall misses
system.icache.overall_misses::total               639                       # number of overall misses
system.icache.demand_miss_latency::.cpu.inst     42524000                       # number of demand (read+write) miss cycles
system.icache.demand_miss_latency::total     42524000                       # number of demand (read+write) miss cycles
system.icache.overall_miss_latency::.cpu.inst     42524000                       # number of overall miss cycles
system.icache.overall_miss_latency::total     42524000                       # number of overall miss cycles
system.icache.demand_accesses::.cpu.inst      1563668                       # number of demand (read+write) accesses
system.icache.demand_accesses::total          1563668                       # number of demand (read+write) accesses
system.icache.overall_accesses::.cpu.inst      1563668                       # number of overall (read+write) accesses
system.icache.overall_accesses::total         1563668                       # number of overall (read+write) accesses
system.icache.demand_miss_rate::.cpu.inst     0.000409                       # miss rate for demand accesses
system.icache.demand_miss_rate::total        0.000409                       # miss rate for demand accesses
system.icache.overall_miss_rate::.cpu.inst     0.000409                       # miss rate for overall accesses
system.icache.overall_miss_rate::total       0.000409                       # miss rate for overall accesses
system.icache.demand_avg_miss_latency::.cpu.inst 66547.730829                       # average overall miss latency
system.icache.demand_avg_miss_latency::total 66547.730829                       # average overall miss latency
system.icache.overall_avg_miss_latency::.cpu.inst 66547.730829                       # average overall miss latency
system.icache.overall_avg_miss_latency::total 66547.730829                       # average overall miss latency
system.icache.blocked_cycles::no_mshrs              0                       # number of cycles access was blocked
system.icache.blocked_cycles::no_targets            0                       # number of cycles access was blocked
system.icache.blocked::no_mshrs                     0                       # number of cycles access was blocked
system.icache.blocked::no_targets                   0                       # number of cycles access was blocked
system.icache.avg_blocked_cycles::no_mshrs          nan                       # average number of cycles each access was blocked
system.icache.avg_blocked_cycles::no_targets          nan                       # average number of cycles each access was blocked
system.icache.demand_mshr_misses::.cpu.inst          639                       # number of demand (read+write) MSHR misses
system.icache.demand_mshr_misses::total           639                       # number of demand (read+write) MSHR misses
system.icache.overall_mshr_misses::.cpu.inst          639                       # number of overall MSHR misses
system.icache.overall_mshr_misses::total          639                       # number of overall MSHR misses
system.icache.demand_mshr_miss_latency::.cpu.inst     41246000                       # number of demand (read+write) MSHR miss cycles
system.icache.demand_mshr_miss_latency::total     41246000                       # number of demand (read+write) MSHR miss cycles
system.icache.overall_mshr_miss_latency::.cpu.inst     41246000                       # number of overall MSHR miss cycles
system.icache.overall_mshr_miss_latency::total     41246000                       # number of overall MSHR miss cycles
system.icache.demand_mshr_miss_rate::.cpu.inst     0.000409                       # mshr miss rate for demand accesses
system.icache.demand_mshr_miss_rate::total     0.000409                       # mshr miss rate for demand accesses
system.icache.overall_mshr_miss_rate::.cpu.inst     0.000409                       # mshr miss rate for overall accesses
system.icache.overall_mshr_miss_rate::total     0.000409                       # mshr miss rate for overall accesses
system.icache.demand_avg_mshr_miss_latency::.cpu.inst 64547.730829                       # average overall mshr miss latency
system.icache.demand_avg_mshr_miss_latency::total 64547.730829                       # average overall mshr miss latency
system.icache.overall_avg_mshr_miss_latency::.cpu.inst 64547.730829                       # average overall mshr miss latency
system.icache.overall_avg_mshr_miss_latency::total 64547.730829                       # average overall mshr miss latency
system.icache.replacements                        417                       # number of replacements
system.icache.ReadReq_hits::.cpu.inst         1563029                       # number of ReadReq hits
system.icache.ReadReq_hits::total             1563029                       # number of ReadReq hits
system.icache.ReadReq_misses::.cpu.inst           639                       # number of ReadReq misses
system.icache.ReadReq_misses::total               639                       # number of ReadReq misses
system.icache.ReadReq_miss_latency::.cpu.inst     42524000                       # number of ReadReq miss cycles
system.icache.ReadReq_miss_latency::total     42524000                       # number of ReadReq miss cycles
system.icache.ReadReq_accesses::.cpu.inst      1563668                       # number of ReadReq accesses(hits+misses)
system.icache.ReadReq_accesses::total         1563668                       # number of ReadReq accesses(hits+misses)
system.icache.ReadReq_miss_rate::.cpu.inst     0.000409                       # miss rate for ReadReq accesses
system.icache.ReadReq_miss_rate::total       0.000409                       # miss rate for ReadReq accesses
system.icache.ReadReq_avg_miss_latency::.cpu.inst 66547.730829                       # average ReadReq miss latency
system.icache.ReadReq_avg_miss_latency::total 66547.730829                       # average ReadReq miss latency
system.icache.ReadReq_mshr_misses::.cpu.inst          639                       # number of ReadReq MSHR misses
system.icache.ReadReq_mshr_misses::total          639                       # number of ReadReq MSHR misses
system.icache.ReadReq_mshr_miss_latency::.cpu.inst     41246000                       # number of ReadReq MSHR miss cycles
system.icache.ReadReq_mshr_miss_latency::total     41246000                       # number of ReadReq MSHR miss cycles
system.icache.ReadReq_mshr_miss_rate::.cpu.inst     0.000409                       # mshr miss rate for ReadReq accesses
system.icache.ReadReq_mshr_miss_rate::total     0.000409                       # mshr miss rate for ReadReq accesses
system.icache.ReadReq_avg_mshr_miss_latency::.cpu.inst 64547.730829                       # average ReadReq mshr miss latency
system.icache.ReadReq_avg_mshr_miss_latency::total 64547.730829                       # average ReadReq mshr miss latency
system.icache.power_state.pwrStateResidencyTicks::UNDEFINED  12571681000                       # Cumulative time (in ticks) in various power states
system.icache.tags.tagsinuse               221.393119                       # Cycle average of tags in use
system.icache.tags.total_refs                   12642                       # Total number of references to valid blocks.
system.icache.tags.sampled_refs                   417                       # Sample count of references to valid blocks.
system.icache.tags.avg_refs                 30.316547                       # Average number of references to valid blocks.
system.icache.tags.warmup_cycle                 80000                       # Cycle when the warmup percentage was hit.
system.icache.tags.occ_blocks::.cpu.inst   221.393119                       # Average occupied blocks per requestor
system.icache.tags.occ_percent::.cpu.inst     0.864817                       # Average percentage of cache occupancy
system.icache.tags.occ_percent::total        0.864817                       # Average percentage of cache occupancy
system.icache.tags.occ_task_id_blocks::1024          222                       # Occupied blocks per task id
system.icache.tags.age_task_id_blocks_1024::4          222                       # Occupied blocks per task id
system.icache.tags.occ_task_id_percent::1024     0.867188                       # Percentage of cache occupancy per task id
system.icache.tags.tag_accesses               1564307                       # Number of tag accesses
system.icache.tags.data_accesses              1564307                       # Number of data accesses
system.icache.tags.power_state.pwrStateResidencyTicks::UNDEFINED  12571681000                       # Cumulative time (in ticks) in various power states
system.membus.trans_dist::ReadReq              107478                       # Transaction distribution
system.membus.trans_dist::ReadResp             107478                       # Transaction distribution
system.membus.trans_dist::WritebackDirty       106329                       # Transaction distribution
system.membus.pkt_count_system.dynamic_cache.mem_side::system.mem_ctrl.port       321285                       # Packet count per connected master and slave (bytes)
system.membus.pkt_count_system.dynamic_cache.mem_side::total       321285                       # Packet count per connected master and slave (bytes)
system.membus.pkt_count::total                 321285                       # Packet count per connected master and slave (bytes)
system.membus.pkt_size_system.dynamic_cache.mem_side::system.mem_ctrl.port     13683648                       # Cumulative packet size per connected master and slave (bytes)
system.membus.pkt_size_system.dynamic_cache.mem_side::total     13683648                       # Cumulative packet size per connected master and slave (bytes)
system.membus.pkt_size::total                13683648                       # Cumulative packet size per connected master and slave (bytes)
system.membus.reqLayer2.occupancy           639123000                       # Layer occupancy (ticks)
system.membus.reqLayer2.utilization               5.1                       # Layer utilization (%)
system.membus.respLayer0.occupancy          567251750                       # Layer occupancy (ticks)
system.membus.respLayer0.utilization              4.5                       # Layer utilization (%)
system.membus.power_state.pwrStateResidencyTicks::UNDEFINED  12571681000                       # Cumulative time (in ticks) in various power states
system.mem_ctrl.bytes_read::.cpu.inst           36928                       # Number of bytes read from this memory
system.mem_ctrl.bytes_read::.cpu.data         6841664                       # Number of bytes read from this memory
system.mem_ctrl.bytes_read::total             6878592                       # Number of bytes read from this memory
system.mem_ctrl.bytes_inst_read::.cpu.inst        36928                       # Number of instructions bytes read from this memory
system.mem_ctrl.bytes_inst_read::total          36928                       # Number of instructions bytes read from this memory
system.mem_ctrl.bytes_written::.writebacks      6805056                       # Number of bytes written to this memory
system.mem_ctrl.bytes_written::total          6805056                       # Number of bytes written to this memory
system.mem_ctrl.num_reads::.cpu.inst              577                       # Number of read requests responded to by this memory
system.mem_ctrl.num_reads::.cpu.data           106901                       # Number of read requests responded to by this memory
system.mem_ctrl.num_reads::total               107478                       # Number of read requests responded to by this memory
system.mem_ctrl.num_writes::.writebacks        106329                       # Number of write requests responded to by this memory
system.mem_ctrl.num_writes::total              106329                       # Number of write requests responded to by this memory
system.mem_ctrl.bw_read::.cpu.inst            2937396                       # Total read bandwidth from this memory (bytes/s)
system.mem_ctrl.bw_read::.cpu.data          544212345                       # Total read bandwidth from this memory (bytes/s)
system.mem_ctrl.bw_read::total              547149741                       # Total read bandwidth from this memory (bytes/s)
system.mem_ctrl.bw_inst_read::.cpu.inst       2937396                       # Instruction read bandwidth from this memory (bytes/s)
system.mem_ctrl.bw_inst_read::total           2937396                       # Instruction read bandwidth from this memory (bytes/s)
system.mem_ctrl.bw_write::.writebacks       541300404                       # Write bandwidth from this memory (bytes/s)
system.mem_ctrl.bw_write::total             541300404                       # Write bandwidth from this memory (bytes/s)
system.mem_ctrl.bw_total::.writebacks       541300404                       # Total bandwidth to/from this memory (bytes/s)
system.mem_ctrl.bw_total::.cpu.inst           2937396                       # Total bandwidth to/from this memory (bytes/s)
system.mem_ctrl.bw_total::.cpu.data         544212345                       # Total bandwidth to/from this memory (bytes/s)
system.mem_ctrl.bw_total::total            1088450144                       # Total bandwidth to/from this memory (bytes/s)
system.mem_ctrl.avgPriority_.writebacks::samples    106327.00                       # Average QoS priority value for accepted requests
system.mem_ctrl.avgPriority_.cpu.inst::samples       577.00                       # Average QoS priority value for accepted requests
system.mem_ctrl.avgPriority_.cpu.data::samples    106893.00                       # Average QoS priority value for accepted requests
system.mem_ctrl.priorityMinLatency       0.000000018750                       # per QoS priority minimum request to response latency (s)
system.mem_ctrl.priorityMaxLatency       0.000204916500                       # per QoS priority maximum request to response latency (s)
system.mem_ctrl.numReadWriteTurnArounds          6443                       # Number of turnarounds from READ to WRITE
system.mem_ctrl.numWriteReadTurnArounds          6443                       # Number of turnarounds from WRITE to READ
system.mem_ctrl.numStayReadState               318047                       # Number of times bus staying in READ state
system.mem_ctrl.numStayWriteState              100159                       # Number of times bus staying in WRITE state
system.mem_ctrl.readReqs                       107478                       # Number of read requests accepted
system.mem_ctrl.writeReqs                      106329                       # Number of write requests accepted
system.mem_ctrl.readBursts                     107478                       # Number of DRAM read bursts, including those serviced by the write queue
system.mem_ctrl.writeBursts                    106329                       # Number of DRAM write bursts, including those merged in the write queue
system.mem_ctrl.servicedByWrQ                       8                       # Number of DRAM read bursts serviced by the write queue
system.mem_ctrl.mergedWrBursts                      2                       # Number of DRAM write bursts merged with an existing one
system.mem_ctrl.neitherReadNorWriteReqs             0                       # Number of requests that are neither read nor write
system.mem_ctrl.perBankRdBursts::0               6742                       # Per bank write bursts
system.mem_ctrl.perBankRdBursts::1               6694                       # Per bank write bursts
system.mem_ctrl.perBankRdBursts::2               6697                       # Per bank write bursts
system.mem_ctrl.perBankRdBursts::3               6703                       # Per bank write bursts
system.mem_ctrl.perBankRdBursts::4               6701                       # Per bank write bursts
system.mem_ctrl.perBankRdBursts::5               6695                       # Per bank write bursts
system.mem_ctrl.perBankRdBursts::6               6685                       # Per bank write bursts
system.mem_ctrl.perBankRdBursts::7               6660                       # Per bank write bursts
system.mem_ctrl.perBankRdBursts::8               6670                       # Per bank write bursts
system.mem_ctrl.perBankRdBursts::9               6750                       # Per bank write bursts
system.mem_ctrl.perBankRdBursts::10              6707                       # Per bank write bursts
system.mem_ctrl.perBankRdBursts::11              6701                       # Per bank write bursts
system.mem_ctrl.perBankRdBursts::12              6697                       # Per bank write bursts
system.mem_ctrl.perBankRdBursts::13              6757                       # Per bank write bursts
system.mem_ctrl.perBankRdBursts::14              6767                       # Per bank write bursts
system.mem_ctrl.perBankRdBursts::15              6844                       # Per bank write bursts
system.mem_ctrl.perBankWrBursts::0               6656                       # Per bank write bursts
system.mem_ctrl.perBankWrBursts::1               6656                       # Per bank write bursts
system.mem_ctrl.perBankWrBursts::2               6656                       # Per bank write bursts
system.mem_ctrl.perBankWrBursts::3               6656                       # Per bank write bursts
system.mem_ctrl.perBankWrBursts::4               6656                       # Per bank write bursts
system.mem_ctrl.perBankWrBursts::5               6656                       # Per bank write bursts
system.mem_ctrl.perBankWrBursts::6               6656                       # Per bank write bursts
system.mem_ctrl.perBankWrBursts::7               6656                       # Per bank write bursts
system.mem_ctrl.perBankWrBursts::8               6658                       # Per bank write bursts
system.mem_ctrl.perBankWrBursts::9               6714                       # Per bank write bursts
system.mem_ctrl.perBankWrBursts::10              6673                       # Per bank write bursts
system.mem_ctrl.perBankWrBursts::11              6661                       # Per bank write bursts
system.mem_ctrl.perBankWrBursts::12              6540                       # Per bank write bursts
system.mem_ctrl.perBankWrBursts::13              6558                       # Per bank write bursts
system.mem_ctrl.perBankWrBursts::14              6593                       # Per bank write bursts
system.mem_ctrl.perBankWrBursts::15              6656                       # Per bank write bursts
system.mem_ctrl.avgRdQLen                        1.00                       # Average read queue length when enqueuing
system.mem_ctrl.avgWrQLen                       25.41                       # Average write queue length when enqueuing
system.mem_ctrl.totQLat                     945805750                       # Total ticks spent queuing
system.mem_ctrl.totBusLat                   537350000                       # Total ticks spent in databus transfers
system.mem_ctrl.totMemAccLat               2960868250                       # Total ticks spent from burst creation until serviced by the DRAM
system.mem_ctrl.avgQLat                       8800.65                       # Average queueing delay per DRAM burst
system.mem_ctrl.avgBusLat                     5000.00                       # Average bus latency per DRAM burst
system.mem_ctrl.avgMemAccLat                 27550.65                       # Average memory access latency per DRAM burst
system.mem_ctrl.numRdRetry                          0                       # Number of times read queue was full causing retry
system.mem_ctrl.numWrRetry                          0                       # Number of times write queue was full causing retry
system.mem_ctrl.readRowHits                     99179                       # Number of row buffer hits during reads
system.mem_ctrl.writeRowHits                    98142                       # Number of row buffer hits during writes
system.mem_ctrl.readRowHitRate                  92.29                       # Row buffer hit rate for reads
system.mem_ctrl.writeRowHitRate                 92.30                       # Row buffer hit rate for writes
system.mem_ctrl.readPktSize::0                      0                       # Read request sizes (log2)
system.mem_ctrl.readPktSize::1                      0                       # Read request sizes (log2)
system.mem_ctrl.readPktSize::2                      0                       # Read request sizes (log2)
system.mem_ctrl.readPktSize::3                      0                       # Read request sizes (log2)
system.mem_ctrl.readPktSize::4                      0                       # Read request sizes (log2)
system.mem_ctrl.readPktSize::5                      0                       # Read request sizes (log2)
system.mem_ctrl.readPktSize::6                 107478                       # Read request sizes (log2)
system.mem_ctrl.writePktSize::0                     0                       # Write request sizes (log2)
system.mem_ctrl.writePktSize::1                     0                       # Write request sizes (log2)
system.mem_ctrl.writePktSize::2                     0                       # Write request sizes (log2)
system.mem_ctrl.writePktSize::3                     0                       # Write request sizes (log2)
system.mem_ctrl.writePktSize::4                     0                       # Write request sizes (log2)
system.mem_ctrl.writePktSize::5                     0                       # Write request sizes (log2)
system.mem_ctrl.writePktSize::6                106329                       # Write request sizes (log2)
system.mem_ctrl.rdQLenPdf::0                   107470                       # What read queue length does an incoming req see
system.mem_ctrl.rdQLenPdf::1                        0                       # What read queue length does an incoming req see
system.mem_ctrl.rdQLenPdf::2                        0                       # What read queue length does an incoming req see
system.mem_ctrl.rdQLenPdf::3                        0                       # What read queue length does an incoming req see
system.mem_ctrl.rdQLenPdf::4                        0                       # What read queue length does an incoming req see
system.mem_ctrl.rdQLenPdf::5                        0                       # What read queue length does an incoming req see
system.mem_ctrl.rdQLenPdf::6                        0                       # What read queue length does an incoming req see
system.mem_ctrl.rdQLenPdf::7                        0                       # What read queue length does an incoming req see
system.mem_ctrl.rdQLenPdf::8                        0                       # What read queue length does an incoming req see
system.mem_ctrl.rdQLenPdf::9                        0                       # What read queue length does an incoming req see
system.mem_ctrl.rdQLenPdf::10                       0                       # What read queue length does an incoming req see
system.mem_ctrl.rdQLenPdf::11                       0                       # What read queue length does an incoming req see
system.mem_ctrl.rdQLenPdf::12                       0                       # What read queue length does an incoming req see
system.mem_ctrl.rdQLenPdf::13                       0                       # What read queue length does an incoming req see
system.mem_ctrl.rdQLenPdf::14                       0                       # What read queue length does an incoming req see
system.mem_ctrl.rdQLenPdf::15                       0                       # What read queue length does an incoming req see
system.mem_ctrl.rdQLenPdf::16                       0                       # What read queue length does an incoming req see
system.mem_ctrl.rdQLenPdf::17                       0                       # What read queue length does an incoming req see
system.mem_ctrl.rdQLenPdf::18                       0                       # What read queue length does an incoming req see
system.mem_ctrl.rdQLenPdf::19                       0                       # What read queue length does an incoming req see
system.mem_ctrl.rdQLenPdf::20                       0                       # What read queue length does an incoming req see
system.mem_ctrl.rdQLenPdf::21                       0                       # What read queue length does an incoming req see
system.mem_ctrl.rdQLenPdf::22                       0                       # What read queue length does an incoming req see
system.mem_ctrl.rdQLenPdf::23                       0                       # What read queue length does an incoming req see
system.mem_ctrl.rdQLenPdf::24                       0                       # What read queue length does an incoming req see
system.mem_ctrl.rdQLenPdf::25                       0                       # What read queue length does an incoming req see
system.mem_ctrl.rdQLenPdf::26                       0                       # What read queue length does an incoming req see
system.mem_ctrl.rdQLenPdf::27                       0                       # What read queue length does an incoming req see
system.mem_ctrl.rdQLenPdf::28                       0                       # What read queue length does an incoming req see
system.mem_ctrl.rdQLenPdf::29                       0                       # What read queue length does an incoming req see
system.mem_ctrl.rdQLenPdf::30                       0                       # What read queue length does an incoming req see
system.mem_ctrl.rdQLenPdf::31                       0                       # What read queue length does an incoming req see
system.mem_ctrl.wrQLenPdf::0                        1                       # What write queue length does an incoming req see
system.mem_ctrl.wrQLenPdf::1                        1                       # What write queue length does an incoming req see
system.mem_ctrl.wrQLenPdf::2                        1                       # What write queue length does an incoming req see
system.mem_ctrl.wrQLenPdf::3                        1                       # What write queue length does an incoming req see
system.mem_ctrl.wrQLenPdf::4                        1                       # What write queue length does an incoming req see
system.mem_ctrl.wrQLenPdf::5                        1                       # What write queue length does an incoming req see
system.mem_ctrl.wrQLenPdf::6                        1                       # What write queue length does an incoming req see
system.mem_ctrl.wrQLenPdf::7                        1                       # What write queue length does an incoming req see
system.mem_ctrl.wrQLenPdf::8                        1                       # What write queue length does an incoming req see
system.mem_ctrl.wrQLenPdf::9                        1                       # What write queue length does an incoming req see
system.mem_ctrl.wrQLenPdf::10                       1                       # What write queue length does an incoming req see
system.mem_ctrl.wrQLenPdf::11                       1                       # What write queue length does an incoming req see
system.mem_ctrl.wrQLenPdf::12                       1                       # What write queue length does an incoming req see
system.mem_ctrl.wrQLenPdf::13                       1                       # What write queue length does an incoming req see
system.mem_ctrl.wrQLenPdf::14                       1                       # What write queue length does an incoming req see
system.mem_ctrl.wrQLenPdf::15                    1468                       # What write queue length does an incoming req see
system.mem_ctrl.wrQLenPdf::16                    1680                       # What write queue length does an incoming req see
system.mem_ctrl.wrQLenPdf::17                    6444                       # What write queue length does an incoming req see
system.mem_ctrl.wrQLenPdf::18                    6476                       # What write queue length does an incoming req see
system.mem_ctrl.wrQLenPdf::19                    6479                       # What write queue length does an incoming req see
system.mem_ctrl.wrQLenPdf::20                    6444                       # What write queue length does an incoming req see
system.mem_ctrl.wrQLenPdf::21                    6444                       # What write queue length does an incoming req see
system.mem_ctrl.wrQLenPdf::22                    6444                       # What write queue length does an incoming req see
system.mem_ctrl.wrQLenPdf::23                    6444                       # What write queue length does an incoming req see
system.mem_ctrl.wrQLenPdf::24                    6444                       # What write queue length does an incoming req see
system.mem_ctrl.wrQLenPdf::25                    6444                       # What write queue length does an incoming req see
system.mem_ctrl.wrQLenPdf::26                    6443                       # What write queue length does an incoming req see
system.mem_ctrl.wrQLenPdf::27                    6443                       # What write queue length does an incoming req see
system.mem_ctrl.wrQLenPdf::28                    6443                       # What write queue length does an incoming req see
system.mem_ctrl.wrQLenPdf::29                    6443                       # What write queue length does an incoming req see
system.mem_ctrl.wrQLenPdf::30                    6443                       # What write queue length does an incoming req see
system.mem_ctrl.wrQLenPdf::31                    6443                       # What write queue length does an incoming req see
system.mem_ctrl.wrQLenPdf::32                    6443                       # What write queue length does an incoming req see
system.mem_ctrl.wrQLenPdf::33                       0                       # What write queue length does an incoming req see
system.mem_ctrl.wrQLenPdf::34                       0                       # What write queue length does an incoming req see
system.mem_ctrl.wrQLenPdf::35                       0                       # What write queue length does an incoming req see
system.mem_ctrl.wrQLenPdf::36                       0                       # What write queue length does an incoming req see
system.mem_ctrl.wrQLenPdf::37                       0                       # What write queue length does an incoming req see
system.mem_ctrl.wrQLenPdf::38                       0                       # What write queue length does an incoming req see
system.mem_ctrl.wrQLenPdf::39                       0                       # What write queue length does an incoming req see
system.mem_ctrl.wrQLenPdf::40                       0                       # What write queue length does an incoming req see
system.mem_ctrl.wrQLenPdf::41                       0                       # What write queue length does an incoming req see
system.mem_ctrl.wrQLenPdf::42                       0                       # What write queue length does an incoming req see
system.mem_ctrl.wrQLenPdf::43                       0                       # What write queue length does an incoming req see
system.mem_ctrl.wrQLenPdf::44                       0                       # What write queue length does an incoming req see
system.mem_ctrl.wrQLenPdf::45                       0                       # What write queue length does an incoming req see
system.mem_ctrl.wrQLenPdf::46                       0                       # What write queue length does an incoming req see
system.mem_ctrl.wrQLenPdf::47                       0                       # What write queue length does an incoming req see
system.mem_ctrl.wrQLenPdf::48                       0                       # What write queue length does an incoming req see
system.mem_ctrl.wrQLenPdf::49                       0                       # What write queue length does an incoming req see
system.mem_ctrl.wrQLenPdf::50                       0                       # What write queue length does an incoming req see
system.mem_ctrl.wrQLenPdf::51                       0                       # What write queue length does an incoming req see
system.mem_ctrl.wrQLenPdf::52                       0                       # What write queue length does an incoming req see
system.mem_ctrl.wrQLenPdf::53                       0                       # What write queue length does an incoming req see
system.mem_ctrl.wrQLenPdf::54                       0                       # What write queue length does an incoming req see
system.mem_ctrl.wrQLenPdf::55                       0                       # What write queue length does an incoming req see
system.mem_ctrl.wrQLenPdf::56                       0                       # What write queue length does an incoming req see
system.mem_ctrl.wrQLenPdf::57                       0                       # What write queue length does an incoming req see
system.mem_ctrl.wrQLenPdf::58                       0                       # What write queue length does an incoming req see
system.mem_ctrl.wrQLenPdf::59                       0                       # What write queue length does an incoming req see
system.mem_ctrl.wrQLenPdf::60                       0                       # What write queue length does an incoming req see
system.mem_ctrl.wrQLenPdf::61                       0                       # What write queue length does an incoming req see
system.mem_ctrl.wrQLenPdf::62                       0                       # What write queue length does an incoming req see
system.mem_ctrl.wrQLenPdf::63                       0                       # What write queue length does an incoming req see
system.mem_ctrl.bytesPerActivate::samples        16449                       # Bytes accessed per row activation
system.mem_ctrl.bytesPerActivate::mean     831.715971                       # Bytes accessed per row activation
system.mem_ctrl.bytesPerActivate::gmean    694.616595                       # Bytes accessed per row activation
system.mem_ctrl.bytesPerActivate::stdev    332.344269                       # Bytes accessed per row activation
system.mem_ctrl.bytesPerActivate::0-127           394      2.40%      2.40% # Bytes accessed per row activation
system.mem_ctrl.bytesPerActivate::128-255         1890     11.49%     13.89% # Bytes accessed per row activation
system.mem_ctrl.bytesPerActivate::256-383          516      3.14%     17.02% # Bytes accessed per row activation
system.mem_ctrl.bytesPerActivate::384-511          474      2.88%     19.90% # Bytes accessed per row activation
system.mem_ctrl.bytesPerActivate::512-639          414      2.52%     22.42% # Bytes accessed per row activation
system.mem_ctrl.bytesPerActivate::640-767          402      2.44%     24.86% # Bytes accessed per row activation
system.mem_ctrl.bytesPerActivate::768-895          470      2.86%     27.72% # Bytes accessed per row activation
system.mem_ctrl.bytesPerActivate::896-1023          334      2.03%     29.75% # Bytes accessed per row activation
system.mem_ctrl.bytesPerActivate::1024-1151        11555     70.25%    100.00% # Bytes accessed per row activation
system.mem_ctrl.bytesPerActivate::total         16449                       # Bytes accessed per row activation
system.mem_ctrl.rdPerTurnAround::samples         6443                       # Reads before turning the bus around for writes
system.mem_ctrl.rdPerTurnAround::mean       16.678721                       # Reads before turning the bus around for writes
system.mem_ctrl.rdPerTurnAround::gmean      16.504707                       # Reads before turning the bus around for writes
system.mem_ctrl.rdPerTurnAround::stdev      10.060844                       # Reads before turning the bus around for writes
system.mem_ctrl.rdPerTurnAround::0-31            6437     99.91%     99.91% # Reads before turning the bus around for writes
system.mem_ctrl.rdPerTurnAround::32-63              2      0.03%     99.94% # Reads before turning the bus around for writes
system.mem_ctrl.rdPerTurnAround::64-95              1      0.02%     99.95% # Reads before turning the bus around for writes
system.mem_ctrl.rdPerTurnAround::96-127             1      0.02%     99.97% # Reads before turning the bus around for writes
system.mem_ctrl.rdPerTurnAround::224-255            1      0.02%     99.98% # Reads before turning the bus around for writes
system.mem_ctrl.rdPerTurnAround::768-799            1      0.02%    100.00% # Reads before turning the bus around for writes
system.mem_ctrl.rdPerTurnAround::total           6443                       # Reads before turning the bus around for writes
system.mem_ctrl.wrPerTurnAround::samples         6443                       # Writes before turning the bus around for reads
system.mem_ctrl.wrPerTurnAround::mean       16.498681                       # Writes before turning the bus around for reads
system.mem_ctrl.wrPerTurnAround::gmean      16.477286                       # Writes before turning the bus around for reads
system.mem_ctrl.wrPerTurnAround::stdev       0.857128                       # Writes before turning the bus around for reads
system.mem_ctrl.wrPerTurnAround::16              4764     73.94%     73.94% # Writes before turning the bus around for reads
system.mem_ctrl.wrPerTurnAround::17               172      2.67%     76.61% # Writes before turning the bus around for reads
system.mem_ctrl.wrPerTurnAround::18              1480     22.97%     99.58% # Writes before turning the bus around for reads
system.mem_ctrl.wrPerTurnAround::19                27      0.42%    100.00% # Writes before turning the bus around for reads
system.mem_ctrl.wrPerTurnAround::total           6443                       # Writes before turning the bus around for reads
system.mem_ctrl.bytesReadDRAM                 6878080                       # Total number of bytes read from DRAM
system.mem_ctrl.bytesReadWrQ                      512                       # Total number of bytes read from write queue
system.mem_ctrl.bytesWritten                  6803264                       # Total number of bytes written to DRAM
system.mem_ctrl.bytesReadSys                  6878592                       # Total read bytes from the system interface side
system.mem_ctrl.bytesWrittenSys               6805056                       # Total written bytes from the system interface side
system.mem_ctrl.avgRdBW                        547.11                       # Average DRAM read bandwidth in MiByte/s
system.mem_ctrl.avgWrBW                        541.16                       # Average achieved write bandwidth in MiByte/s
system.mem_ctrl.avgRdBWSys                     547.15                       # Average system read bandwidth in MiByte/s
system.mem_ctrl.avgWrBWSys                     541.30                       # Average system write bandwidth in MiByte/s
system.mem_ctrl.peakBW                       12800.00                       # Theoretical peak bandwidth in MiByte/s
system.mem_ctrl.busUtil                          8.50                       # Data bus utilization in percentage
system.mem_ctrl.busUtilRead                      4.27                       # Data bus utilization in percentage for reads
system.mem_ctrl.busUtilWrite                     4.23                       # Data bus utilization in percentage for writes
system.mem_ctrl.totGap                    12571641000                       # Total gap between requests
system.mem_ctrl.avgGap                       58799.01                       # Average gap between requests
system.mem_ctrl.masterReadBytes::.cpu.inst        36928                       # Per-master bytes read from memory
system.mem_ctrl.masterReadBytes::.cpu.data      6841152                       # Per-master bytes read from memory
system.mem_ctrl.masterWriteBytes::.writebacks      6803264                       # Per-master bytes write to memory
system.mem_ctrl.masterReadRate::.cpu.inst 2937395.563886802644                       # Per-master bytes read from memory rate (Bytes/sec)
system.mem_ctrl.masterReadRate::.cpu.data 544171618.735792040825                       # Per-master bytes read from memory rate (Bytes/sec)
system.mem_ctrl.masterWriteRate::.writebacks 541157861.068857908249                       # Per-master bytes write to memory rate (Bytes/sec)
system.mem_ctrl.masterReadAccesses::.cpu.inst          577                       # Per-master read serviced memory accesses
system.mem_ctrl.masterReadAccesses::.cpu.data       106901                       # Per-master read serviced memory accesses
system.mem_ctrl.masterWriteAccesses::.writebacks       106329                       # Per-master write serviced memory accesses
system.mem_ctrl.masterReadTotalLat::.cpu.inst     14845750                       # Per-master read total memory access latency
system.mem_ctrl.masterReadTotalLat::.cpu.data   2946022500                       # Per-master read total memory access latency
system.mem_ctrl.masterWriteTotalLat::.writebacks 307226891500                       # Per-master write total memory access latency
system.mem_ctrl.masterReadAvgLat::.cpu.inst     25729.20                       # Per-master read average memory access latency
system.mem_ctrl.masterReadAvgLat::.cpu.data     27558.42                       # Per-master read average memory access latency
system.mem_ctrl.masterWriteAvgLat::.writebacks   2889398.86                       # Per-master write average memory access latency
system.mem_ctrl.pageHitRate                     92.29                       # Row buffer hit rate, read and write combined
system.mem_ctrl.rank1.actEnergy              58976400                       # Energy for activate commands per rank (pJ)
system.mem_ctrl.rank1.preEnergy              31342905                       # Energy for precharge commands per rank (pJ)
system.mem_ctrl.rank1.readEnergy            384796020                       # Energy for read commands per rank (pJ)
system.mem_ctrl.rank1.writeEnergy           276936660                       # Energy for write commands per rank (pJ)
system.mem_ctrl.rank1.refreshEnergy      992028960.000000                       # Energy for refresh commands per rank (pJ)
system.mem_ctrl.rank1.actBackEnergy        4111065150                       # Energy for active background per rank (pJ)
system.mem_ctrl.rank1.preBackEnergy        1365576000                       # Energy for precharge background per rank (pJ)
system.mem_ctrl.rank1.actPowerDownEnergy            0                       # Energy for active power-down per rank (pJ)
system.mem_ctrl.rank1.prePowerDownEnergy            0                       # Energy for precharge power-down per rank (pJ)
system.mem_ctrl.rank1.selfRefreshEnergy             0                       # Energy for self refresh per rank (pJ)
system.mem_ctrl.rank1.totalEnergy          7220722095                       # Total energy per rank (pJ)
system.mem_ctrl.rank1.averagePower         574.364088                       # Core power per rank (mW)
system.mem_ctrl.rank1.totalIdleTime                 0                       # Total Idle time Per DRAM Rank
system.mem_ctrl.rank1.memoryStateTime::IDLE   3484520250                       # Time in different power states
system.mem_ctrl.rank1.memoryStateTime::REF    419640000                       # Time in different power states
system.mem_ctrl.rank1.memoryStateTime::SREF            0                       # Time in different power states
system.mem_ctrl.rank1.memoryStateTime::PRE_PDN            0                       # Time in different power states
system.mem_ctrl.rank1.memoryStateTime::ACT   8667520750                       # Time in different power states
system.mem_ctrl.rank1.memoryStateTime::ACT_PDN            0                       # Time in different power states
system.mem_ctrl.rank0.actEnergy              58476600                       # Energy for activate commands per rank (pJ)
system.mem_ctrl.rank0.preEnergy              31081050                       # Energy for precharge commands per rank (pJ)
system.mem_ctrl.rank0.readEnergy            382539780                       # Energy for read commands per rank (pJ)
system.mem_ctrl.rank0.writeEnergy           277954560                       # Energy for write commands per rank (pJ)
system.mem_ctrl.rank0.refreshEnergy      992028960.000000                       # Energy for refresh commands per rank (pJ)
system.mem_ctrl.rank0.actBackEnergy        4072374120                       # Energy for active background per rank (pJ)
system.mem_ctrl.rank0.preBackEnergy        1398157920                       # Energy for precharge background per rank (pJ)
system.mem_ctrl.rank0.actPowerDownEnergy            0                       # Energy for active power-down per rank (pJ)
system.mem_ctrl.rank0.prePowerDownEnergy            0                       # Energy for precharge power-down per rank (pJ)
system.mem_ctrl.rank0.selfRefreshEnergy             0                       # Energy for self refresh per rank (pJ)
system.mem_ctrl.rank0.totalEnergy          7212612990                       # Total energy per rank (pJ)
system.mem_ctrl.rank0.averagePower         573.719059                       # Core power per rank (mW)
system.mem_ctrl.rank0.totalIdleTime                 0                       # Total Idle time Per DRAM Rank
system.mem_ctrl.rank0.memoryStateTime::IDLE   3569021750                       # Time in different power states
system.mem_ctrl.rank0.memoryStateTime::REF    419640000                       # Time in different power states
system.mem_ctrl.rank0.memoryStateTime::SREF            0                       # Time in different power states
system.mem_ctrl.rank0.memoryStateTime::PRE_PDN            0                       # Time in different power states
system.mem_ctrl.rank0.memoryStateTime::ACT   8583019250                       # Time in different power states
system.mem_ctrl.rank0.memoryStateTime::ACT_PDN            0                       # Time in different power states
system.mem_ctrl.power_state.pwrStateResidencyTicks::UNDEFINED  12571681000                       # Cumulative time (in ticks) in various power states
system.cache_medium.blocked_cycles::no_mshrs            0                       # number of cycles access was blocked
system.cache_medium.blocked_cycles::no_targets            0                       # number of cycles access was blocked
system.cache_medium.blocked::no_mshrs               0                       # number of cycles access was blocked
system.cache_medium.blocked::no_targets             0                       # number of cycles access was blocked
system.cache_medium.avg_blocked_cycles::no_mshrs          nan                       # average number of cycles each access was blocked
system.cache_medium.avg_blocked_cycles::no_targets          nan                       # average number of cycles each access was blocked
system.cache_medium.replacements                    0                       # number of replacements
system.cache_medium.power_state.pwrStateResidencyTicks::UNDEFINED  12571681000                       # Cumulative time (in ticks) in various power states
system.cache_medium.tags.tagsinuse                  0                       # Cycle average of tags in use
system.cache_medium.tags.total_refs                 0                       # Total number of references to valid blocks.
system.cache_medium.tags.sampled_refs               0                       # Sample count of references to valid blocks.
system.cache_medium.tags.avg_refs                 nan                       # Average number of references to valid blocks.
system.cache_medium.tags.warmup_cycle               0                       # Cycle when the warmup percentage was hit.
system.cache_medium.tags.tag_accesses               0                       # Number of tag accesses
system.cache_medium.tags.data_accesses              0                       # Number of data accesses
system.cache_medium.tags.power_state.pwrStateResidencyTicks::UNDEFINED  12571681000                       # Cumulative time (in ticks) in various power states
system.clk_domain.clock                          1000                       # Clock period in ticks
system.clk_domain.voltage_domain.voltage            1                       # Voltage in Volts
system.dcache.demand_hits::.cpu.data           753755                       # number of demand (read+write) hits
system.dcache.demand_hits::total               753755                       # number of demand (read+write) hits
system.dcache.overall_hits::.cpu.data          753755                       # number of overall hits
system.dcache.overall_hits::total              753755                       # number of overall hits
system.dcache.demand_misses::.cpu.data         106969                       # number of demand (read+write) misses
system.dcache.demand_misses::total             106969                       # number of demand (read+write) misses
system.dcache.overall_misses::.cpu.data        106969                       # number of overall misses
system.dcache.overall_misses::total            106969                       # number of overall misses
system.dcache.demand_miss_latency::.cpu.data   7894072000                       # number of demand (read+write) miss cycles
system.dcache.demand_miss_latency::total   7894072000                       # number of demand (read+write) miss cycles
system.dcache.overall_miss_latency::.cpu.data   7894072000                       # number of overall miss cycles
system.dcache.overall_miss_latency::total   7894072000                       # number of overall miss cycles
system.dcache.demand_accesses::.cpu.data       860724                       # number of demand (read+write) accesses
system.dcache.demand_accesses::total           860724                       # number of demand (read+write) accesses
system.dcache.overall_accesses::.cpu.data       860724                       # number of overall (read+write) accesses
system.dcache.overall_accesses::total          860724                       # number of overall (read+write) accesses
system.dcache.demand_miss_rate::.cpu.data     0.124278                       # miss rate for demand accesses
system.dcache.demand_miss_rate::total        0.124278                       # miss rate for demand accesses
system.dcache.overall_miss_rate::.cpu.data     0.124278                       # miss rate for overall accesses
system.dcache.overall_miss_rate::total       0.124278                       # miss rate for overall accesses
system.dcache.demand_avg_miss_latency::.cpu.data 73797.754490                       # average overall miss latency
system.dcache.demand_avg_miss_latency::total 73797.754490                       # average overall miss latency
system.dcache.overall_avg_miss_latency::.cpu.data 73797.754490                       # average overall miss latency
system.dcache.overall_avg_miss_latency::total 73797.754490                       # average overall miss latency
system.dcache.blocked_cycles::no_mshrs              0                       # number of cycles access was blocked
system.dcache.blocked_cycles::no_targets            0                       # number of cycles access was blocked
system.dcache.blocked::no_mshrs                     0                       # number of cycles access was blocked
system.dcache.blocked::no_targets                   0                       # number of cycles access was blocked
system.dcache.avg_blocked_cycles::no_mshrs          nan                       # average number of cycles each access was blocked
system.dcache.avg_blocked_cycles::no_targets          nan                       # average number of cycles each access was blocked
system.dcache.writebacks::.writebacks          106609                       # number of writebacks
system.dcache.writebacks::total                106609                       # number of writebacks
system.dcache.demand_mshr_misses::.cpu.data       106969                       # number of demand (read+write) MSHR misses
system.dcache.demand_mshr_misses::total        106969                       # number of demand (read+write) MSHR misses
system.dcache.overall_mshr_misses::.cpu.data       106969                       # number of overall MSHR misses
system.dcache.overall_mshr_misses::total       106969                       # number of overall MSHR misses
system.dcache.demand_mshr_miss_latency::.cpu.data   7680136000                       # number of demand (read+write) MSHR miss cycles
system.dcache.demand_mshr_miss_latency::total   7680136000                       # number of demand (read+write) MSHR miss cycles
system.dcache.overall_mshr_miss_latency::.cpu.data   7680136000                       # number of overall MSHR miss cycles
system.dcache.overall_mshr_miss_latency::total   7680136000                       # number of overall MSHR miss cycles
system.dcache.demand_mshr_miss_rate::.cpu.data     0.124278                       # mshr miss rate for demand accesses
system.dcache.demand_mshr_miss_rate::total     0.124278                       # mshr miss rate for demand accesses
system.dcache.overall_mshr_miss_rate::.cpu.data     0.124278                       # mshr miss rate for overall accesses
system.dcache.overall_mshr_miss_rate::total     0.124278                       # mshr miss rate for overall accesses
system.dcache.demand_avg_mshr_miss_latency::.cpu.data 71797.773187                       # average overall mshr miss latency
system.dcache.demand_avg_mshr_miss_latency::total 71797.773187                       # average overall mshr miss latency
system.dcache.overall_avg_mshr_miss_latency::.cpu.data 71797.773187                       # average overall mshr miss latency
system.dcache.overall_avg_mshr_miss_latency::total 71797.773187                       # average overall mshr miss latency
system.dcache.replacements                     106712                       # number of replacements
system.dcache.ReadReq_hits::.cpu.data            4178                       # number of ReadReq hits
system.dcache.ReadReq_hits::total                4178                       # number of ReadReq hits
system.dcache.ReadReq_misses::.cpu.data           157                       # number of ReadReq misses
system.dcache.ReadReq_misses::total               157                       # number of ReadReq misses
system.dcache.ReadReq_miss_latency::.cpu.data      8039000                       # number of ReadReq miss cycles
system.dcache.ReadReq_miss_latency::total      8039000                       # number of ReadReq miss cycles
system.dcache.ReadReq_accesses::.cpu.data         4335                       # number of ReadReq accesses(hits+misses)
system.dcache.ReadReq_accesses::total            4335                       # number of ReadReq accesses(hits+misses)
system.dcache.ReadReq_miss_rate::.cpu.data     0.036217                       # miss rate for ReadReq accesses
system.dcache.ReadReq_miss_rate::total       0.036217                       # miss rate for ReadReq accesses
system.dcache.ReadReq_avg_miss_latency::.cpu.data 51203.821656                       # average ReadReq miss latency
system.dcache.ReadReq_avg_miss_latency::total 51203.821656                       # average ReadReq miss latency
system.dcache.ReadReq_mshr_misses::.cpu.data          157                       # number of ReadReq MSHR misses
system.dcache.ReadReq_mshr_misses::total          157                       # number of ReadReq MSHR misses
system.dcache.ReadReq_mshr_miss_latency::.cpu.data      7725000                       # number of ReadReq MSHR miss cycles
system.dcache.ReadReq_mshr_miss_latency::total      7725000                       # number of ReadReq MSHR miss cycles
system.dcache.ReadReq_mshr_miss_rate::.cpu.data     0.036217                       # mshr miss rate for ReadReq accesses
system.dcache.ReadReq_mshr_miss_rate::total     0.036217                       # mshr miss rate for ReadReq accesses
system.dcache.ReadReq_avg_mshr_miss_latency::.cpu.data 49203.821656                       # average ReadReq mshr miss latency
system.dcache.ReadReq_avg_mshr_miss_latency::total 49203.821656                       # average ReadReq mshr miss latency
system.dcache.WriteReq_hits::.cpu.data         749577                       # number of WriteReq hits
system.dcache.WriteReq_hits::total             749577                       # number of WriteReq hits
system.dcache.WriteReq_misses::.cpu.data       106812                       # number of WriteReq misses
system.dcache.WriteReq_misses::total           106812                       # number of WriteReq misses
system.dcache.WriteReq_miss_latency::.cpu.data   7886033000                       # number of WriteReq miss cycles
system.dcache.WriteReq_miss_latency::total   7886033000                       # number of WriteReq miss cycles
system.dcache.WriteReq_accesses::.cpu.data       856389                       # number of WriteReq accesses(hits+misses)
system.dcache.WriteReq_accesses::total         856389                       # number of WriteReq accesses(hits+misses)
system.dcache.WriteReq_miss_rate::.cpu.data     0.124724                       # miss rate for WriteReq accesses
system.dcache.WriteReq_miss_rate::total      0.124724                       # miss rate for WriteReq accesses
system.dcache.WriteReq_avg_miss_latency::.cpu.data 73830.964686                       # average WriteReq miss latency
system.dcache.WriteReq_avg_miss_latency::total 73830.964686                       # average WriteReq miss latency
system.dcache.WriteReq_mshr_misses::.cpu.data       106812                       # number of WriteReq MSHR misses
system.dcache.WriteReq_mshr_misses::total       106812                       # number of WriteReq MSHR misses
system.dcache.WriteReq_mshr_miss_latency::.cpu.data   7672411000                       # number of WriteReq MSHR miss cycles
system.dcache.WriteReq_mshr_miss_latency::total   7672411000                       # number of WriteReq MSHR miss cycles
system.dcache.WriteReq_mshr_miss_rate::.cpu.data     0.124724                       # mshr miss rate for WriteReq accesses
system.dcache.WriteReq_mshr_miss_rate::total     0.124724                       # mshr miss rate for WriteReq accesses
system.dcache.WriteReq_avg_mshr_miss_latency::.cpu.data 71830.983410                       # average WriteReq mshr miss latency
system.dcache.WriteReq_avg_mshr_miss_latency::total 71830.983410                       # average WriteReq mshr miss latency
system.dcache.power_state.pwrStateResidencyTicks::UNDEFINED  12571681000                       # Cumulative time (in ticks) in various power states
system.dcache.tags.tagsinuse               254.452700                       # Cycle average of tags in use
system.dcache.tags.total_refs                  858682                       # Total number of references to valid blocks.
system.dcache.tags.sampled_refs                106712                       # Sample count of references to valid blocks.
system.dcache.tags.avg_refs                  8.046724                       # Average number of references to valid blocks.
system.dcache.tags.warmup_cycle                167000                       # Cycle when the warmup percentage was hit.
system.dcache.tags.occ_blocks::.cpu.data   254.452700                       # Average occupied blocks per requestor
system.dcache.tags.occ_percent::.cpu.data     0.993956                       # Average percentage of cache occupancy
system.dcache.tags.occ_percent::total        0.993956                       # Average percentage of cache occupancy
system.dcache.tags.occ_task_id_blocks::1024          256                       # Occupied blocks per task id
system.dcache.tags.age_task_id_blocks_1024::0           86                       # Occupied blocks per task id
system.dcache.tags.age_task_id_blocks_1024::1          170                       # Occupied blocks per task id
system.dcache.tags.occ_task_id_percent::1024            1                       # Percentage of cache occupancy per task id
system.dcache.tags.tag_accesses                967692                       # Number of tag accesses
system.dcache.tags.data_accesses               967692                       # Number of data accesses
system.dcache.tags.power_state.pwrStateResidencyTicks::UNDEFINED  12571681000                       # Cumulative time (in ticks) in various power states
system.cache_large.blocked_cycles::no_mshrs            0                       # number of cycles access was blocked
system.cache_large.blocked_cycles::no_targets            0                       # number of cycles access was blocked
system.cache_large.blocked::no_mshrs                0                       # number of cycles access was blocked
system.cache_large.blocked::no_targets              0                       # number of cycles access was blocked
system.cache_large.avg_blocked_cycles::no_mshrs          nan                       # average number of cycles each access was blocked
system.cache_large.avg_blocked_cycles::no_targets          nan                       # average number of cycles each access was blocked
system.cache_large.replacements                     0                       # number of replacements
system.cache_large.power_state.pwrStateResidencyTicks::UNDEFINED  12571681000                       # Cumulative time (in ticks) in various power states
system.cache_large.tags.tagsinuse                   0                       # Cycle average of tags in use
system.cache_large.tags.total_refs                  0                       # Total number of references to valid blocks.
system.cache_large.tags.sampled_refs                0                       # Sample count of references to valid blocks.
system.cache_large.tags.avg_refs                  nan                       # Average number of references to valid blocks.
system.cache_large.tags.warmup_cycle                0                       # Cycle when the warmup percentage was hit.
system.cache_large.tags.tag_accesses                0                       # Number of tag accesses
system.cache_large.tags.data_accesses               0                       # Number of data accesses
system.cache_large.tags.power_state.pwrStateResidencyTicks::UNDEFINED  12571681000                       # Cumulative time (in ticks) in various power states
system.l2cache.demand_hits::.cpu.inst              62                       # number of demand (read+write) hits
system.l2cache.demand_hits::.cpu.data              67                       # number of demand (read+write) hits
system.l2cache.demand_hits::total                 129                       # number of demand (read+write) hits
system.l2cache.overall_hits::.cpu.inst             62                       # number of overall hits
system.l2cache.overall_hits::.cpu.data             67                       # number of overall hits
system.l2cache.overall_hits::total                129                       # number of overall hits
system.l2cache.demand_misses::.cpu.inst           577                       # number of demand (read+write) misses
system.l2cache.demand_misses::.cpu.data        106902                       # number of demand (read+write) misses
system.l2cache.demand_misses::total            107479                       # number of demand (read+write) misses
system.l2cache.overall_misses::.cpu.inst          577                       # number of overall misses
system.l2cache.overall_misses::.cpu.data       106902                       # number of overall misses
system.l2cache.overall_misses::total           107479                       # number of overall misses
system.l2cache.demand_miss_latency::.cpu.inst     38113000                       # number of demand (read+write) miss cycles
system.l2cache.demand_miss_latency::.cpu.data   7251659000                       # number of demand (read+write) miss cycles
system.l2cache.demand_miss_latency::total   7289772000                       # number of demand (read+write) miss cycles
system.l2cache.overall_miss_latency::.cpu.inst     38113000                       # number of overall miss cycles
system.l2cache.overall_miss_latency::.cpu.data   7251659000                       # number of overall miss cycles
system.l2cache.overall_miss_latency::total   7289772000                       # number of overall miss cycles
system.l2cache.demand_accesses::.cpu.inst          639                       # number of demand (read+write) accesses
system.l2cache.demand_accesses::.cpu.data       106969                       # number of demand (read+write) accesses
system.l2cache.demand_accesses::total          107608                       # number of demand (read+write) accesses
system.l2cache.overall_accesses::.cpu.inst          639                       # number of overall (read+write) accesses
system.l2cache.overall_accesses::.cpu.data       106969                       # number of overall (read+write) accesses
system.l2cache.overall_accesses::total         107608                       # number of overall (read+write) accesses
system.l2cache.demand_miss_rate::.cpu.inst     0.902973                       # miss rate for demand accesses
system.l2cache.demand_miss_rate::.cpu.data     0.999374                       # miss rate for demand accesses
system.l2cache.demand_miss_rate::total       0.998801                       # miss rate for demand accesses
[...]
system.dcache.tags.occ_percent::total        0.999158                       # Average percentage of cache occupancy
system.dcache.tags.occ_task_id_blocks::1024          256                       # Occupied blocks per task id
system.dcache.tags.age_task_id_blocks_1024::0           80                       # Occupied blocks per task id
system.dcache.tags.age_task_id_blocks_1024::1          176                       # Occupied blocks per task id
system.dcache.tags.occ_task_id_percent::1024            1                       # Percentage of cache occupancy per task id
system.dcache.tags.tag_accesses               6837257                       # Number of tag accesses
system.dcache.tags.data_accesses              6837257                       # Number of data accesses
system.dcache.tags.power_state.pwrStateResidencyTicks::UNDEFINED  90268176000                       # Cumulative time (in ticks) in various power states
system.cache_large.blocked_cycles::no_mshrs            0                       # number of cycles access was blocked
system.cache_large.blocked_cycles::no_targets            0                       # number of cycles access was blocked
system.cache_large.blocked::no_mshrs                0                       # number of cycles access was blocked
system.cache_large.blocked::no_targets              0                       # number of cycles access was blocked
system.cache_large.avg_blocked_cycles::no_mshrs          nan                       # average number of cycles each access was blocked
system.cache_large.avg_blocked_cycles::no_targets          nan                       # average number of cycles each access was blocked
system.cache_large.replacements                     0                       # number of replacements
system.cache_large.power_state.pwrStateResidencyTicks::UNDEFINED  90268176000                       # Cumulative time (in ticks) in various power states
system.cache_large.tags.tagsinuse                   0                       # Cycle average of tags in use
system.cache_large.tags.total_refs                  0                       # Total number of references to valid blocks.
system.cache_large.tags.sampled_refs                0                       # Sample count of references to valid blocks.
system.cache_large.tags.avg_refs                  nan                       # Average number of references to valid blocks.
system.cache_large.tags.warmup_cycle                0                       # Cycle when the warmup percentage was hit.
system.cache_large.tags.tag_accesses                0                       # Number of tag accesses
system.cache_large.tags.data_accesses               0                       # Number of data accesses
system.cache_large.tags.power_state.pwrStateResidencyTicks::UNDEFINED  90268176000                       # Cumulative time (in ticks) in various power states
system.l2cache.demand_hits::.cpu.inst              62                       # number of demand (read+write) hits
system.l2cache.demand_hits::.cpu.data              67                       # number of demand (read+write) hits
system.l2cache.demand_hits::total                 129                       # number of demand (read+write) hits
system.l2cache.overall_hits::.cpu.inst             62                       # number of overall hits
system.l2cache.overall_hits::.cpu.data             67                       # number of overall hits
system.l2cache.overall_hits::total                129                       # number of overall hits
system.l2cache.demand_misses::.cpu.inst           577                       # number of demand (read+write) misses
system.l2cache.demand_misses::.cpu.data        759075                       # number of demand (read+write) misses
system.l2cache.demand_misses::total            759652                       # number of demand (read+write) misses
system.l2cache.overall_misses::.cpu.inst          577                       # number of overall misses
system.l2cache.overall_misses::.cpu.data       759075                       # number of overall misses
system.l2cache.overall_misses::total           759652                       # number of overall misses
system.l2cache.demand_miss_latency::.cpu.inst     38113000                       # number of demand (read+write) miss cycles
system.l2cache.demand_miss_latency::.cpu.data  53081321000                       # number of demand (read+write) miss cycles
system.l2cache.demand_miss_latency::total  53119434000                       # number of demand (read+write) miss cycles
system.l2cache.overall_miss_latency::.cpu.inst     38113000                       # number of overall miss cycles
system.l2cache.overall_miss_latency::.cpu.data  53081321000                       # number of overall miss cycles
system.l2cache.overall_miss_latency::total  53119434000                       # number of overall miss cycles
system.l2cache.demand_accesses::.cpu.inst          639                       # number of demand (read+write) accesses
system.l2cache.demand_accesses::.cpu.data       759142                       # number of demand (read+write) accesses
system.l2cache.demand_accesses::total          759781                       # number of demand (read+write) accesses
system.l2cache.overall_accesses::.cpu.inst          639                       # number of overall (read+write) accesses
system.l2cache.overall_accesses::.cpu.data       759142                       # number of overall (read+write) accesses
system.l2cache.overall_accesses::total         759781                       # number of overall (read+write) accesses
system.l2cache.demand_miss_rate::.cpu.inst     0.902973                       # miss rate for demand accesses
system.l2cache.demand_miss_rate::.cpu.data     0.999912                       # miss rate for demand accesses
system.l2cache.demand_miss_rate::total       0.999830                       # miss rate for demand accesses
system.l2cache.overall_miss_rate::.cpu.inst     0.902973                       # miss rate for overall accesses
system.l2cache.overall_miss_rate::.cpu.data     0.999912                       # miss rate for overall accesses
system.l2cache.overall_miss_rate::total      0.999830                       # miss rate for overall accesses
system.l2cache.demand_avg_miss_latency::.cpu.inst 66053.726170                       # average overall miss latency
system.l2cache.demand_avg_miss_latency::.cpu.data 69928.954319                       # average overall miss latency
system.l2cache.demand_avg_miss_latency::total 69926.010858                       # average overall miss latency
system.l2cache.overall_avg_miss_latency::.cpu.inst 66053.726170                       # average overall miss latency
system.l2cache.overall_avg_miss_latency::.cpu.data 69928.954319                       # average overall miss latency
system.l2cache.overall_avg_miss_latency::total 69926.010858                       # average overall miss latency
system.l2cache.blocked_cycles::no_mshrs             0                       # number of cycles access was blocked
system.l2cache.blocked_cycles::no_targets            0                       # number of cycles access was blocked
system.l2cache.blocked::no_mshrs                    0                       # number of cycles access was blocked
system.l2cache.blocked::no_targets                  0                       # number of cycles access was blocked
system.l2cache.avg_blocked_cycles::no_mshrs          nan                       # average number of cycles each access was blocked
system.l2cache.avg_blocked_cycles::no_targets          nan                       # average number of cycles each access was blocked
system.l2cache.writebacks::.writebacks         758503                       # number of writebacks
system.l2cache.writebacks::total               758503                       # number of writebacks
system.l2cache.demand_mshr_misses::.cpu.inst          577                       # number of demand (read+write) MSHR misses
system.l2cache.demand_mshr_misses::.cpu.data       759075                       # number of demand (read+write) MSHR misses
system.l2cache.demand_mshr_misses::total       759652                       # number of demand (read+write) MSHR misses
system.l2cache.overall_mshr_misses::.cpu.inst          577                       # number of overall MSHR misses
system.l2cache.overall_mshr_misses::.cpu.data       759075                       # number of overall MSHR misses
system.l2cache.overall_mshr_misses::total       759652                       # number of overall MSHR misses
system.l2cache.demand_mshr_miss_latency::.cpu.inst     36959000                       # number of demand (read+write) MSHR miss cycles
system.l2cache.demand_mshr_miss_latency::.cpu.data  51563171000                       # number of demand (read+write) MSHR miss cycles
system.l2cache.demand_mshr_miss_latency::total  51600130000                       # number of demand (read+write) MSHR miss cycles
system.l2cache.overall_mshr_miss_latency::.cpu.inst     36959000                       # number of overall MSHR miss cycles
system.l2cache.overall_mshr_miss_latency::.cpu.data  51563171000                       # number of overall MSHR miss cycles
system.l2cache.overall_mshr_miss_latency::total  51600130000                       # number of overall MSHR miss cycles
system.l2cache.demand_mshr_miss_rate::.cpu.inst     0.902973                       # mshr miss rate for demand accesses
system.l2cache.demand_mshr_miss_rate::.cpu.data     0.999912                       # mshr miss rate for demand accesses
system.l2cache.demand_mshr_miss_rate::total     0.999830                       # mshr miss rate for demand accesses
system.l2cache.overall_mshr_miss_rate::.cpu.inst     0.902973                       # mshr miss rate for overall accesses
system.l2cache.overall_mshr_miss_rate::.cpu.data     0.999912                       # mshr miss rate for overall accesses
system.l2cache.overall_mshr_miss_rate::total     0.999830                       # mshr miss rate for overall accesses
system.l2cache.demand_avg_mshr_miss_latency::.cpu.inst 64053.726170                       # average overall mshr miss latency
system.l2cache.demand_avg_mshr_miss_latency::.cpu.data 67928.954319                       # average overall mshr miss latency
system.l2cache.demand_avg_mshr_miss_latency::total 67926.010858                       # average overall mshr miss latency
system.l2cache.overall_avg_mshr_miss_latency::.cpu.inst 64053.726170                       # average overall mshr miss latency
system.l2cache.overall_avg_mshr_miss_latency::.cpu.data 67928.954319                       # average overall mshr miss latency
system.l2cache.overall_avg_mshr_miss_latency::total 67926.010858                       # average overall mshr miss latency
system.l2cache.replacements                    759285                       # number of replacements
system.l2cache.ReadReq_hits::.cpu.inst             62                       # number of ReadReq hits
system.l2cache.ReadReq_hits::.cpu.data             67                       # number of ReadReq hits
system.l2cache.ReadReq_hits::total                129                       # number of ReadReq hits
system.l2cache.ReadReq_misses::.cpu.inst          577                       # number of ReadReq misses
system.l2cache.ReadReq_misses::.cpu.data       759075                       # number of ReadReq misses
system.l2cache.ReadReq_misses::total           759652                       # number of ReadReq misses
system.l2cache.ReadReq_miss_latency::.cpu.inst     38113000                       # number of ReadReq miss cycles
system.l2cache.ReadReq_miss_latency::.cpu.data  53081321000                       # number of ReadReq miss cycles
system.l2cache.ReadReq_miss_latency::total  53119434000                       # number of ReadReq miss cycles
system.l2cache.ReadReq_accesses::.cpu.inst          639                       # number of ReadReq accesses(hits+misses)
system.l2cache.ReadReq_accesses::.cpu.data       759142                       # number of ReadReq accesses(hits+misses)
system.l2cache.ReadReq_accesses::total         759781                       # number of ReadReq accesses(hits+misses)
system.l2cache.ReadReq_miss_rate::.cpu.inst     0.902973                       # miss rate for ReadReq accesses
system.l2cache.ReadReq_miss_rate::.cpu.data     0.999912                       # miss rate for ReadReq accesses
system.l2cache.ReadReq_miss_rate::total      0.999830                       # miss rate for ReadReq accesses
system.l2cache.ReadReq_avg_miss_latency::.cpu.inst 66053.726170                       # average ReadReq miss latency
system.l2cache.ReadReq_avg_miss_latency::.cpu.data 69928.954319                       # average ReadReq miss latency
system.l2cache.ReadReq_avg_miss_latency::total 69926.010858                       # average ReadReq miss latency
system.l2cache.ReadReq_mshr_misses::.cpu.inst          577                       # number of ReadReq MSHR misses
system.l2cache.ReadReq_mshr_misses::.cpu.data       759075                       # number of ReadReq MSHR misses
system.l2cache.ReadReq_mshr_misses::total       759652                       # number of ReadReq MSHR misses
system.l2cache.ReadReq_mshr_miss_latency::.cpu.inst     36959000                       # number of ReadReq MSHR miss cycles
system.l2cache.ReadReq_mshr_miss_latency::.cpu.data  51563171000                       # number of ReadReq MSHR miss cycles
system.l2cache.ReadReq_mshr_miss_latency::total  51600130000                       # number of ReadReq MSHR miss cycles
system.l2cache.ReadReq_mshr_miss_rate::.cpu.inst     0.902973                       # mshr miss rate for ReadReq accesses
system.l2cache.ReadReq_mshr_miss_rate::.cpu.data     0.999912                       # mshr miss rate for ReadReq accesses
system.l2cache.ReadReq_mshr_miss_rate::total     0.999830                       # mshr miss rate for ReadReq accesses
system.l2cache.ReadReq_avg_mshr_miss_latency::.cpu.inst 64053.726170                       # average ReadReq mshr miss latency
system.l2cache.ReadReq_avg_mshr_miss_latency::.cpu.data 67928.954319                       # average ReadReq mshr miss latency
system.l2cache.ReadReq_avg_mshr_miss_latency::total 67926.010858                       # average ReadReq mshr miss latency
system.l2cache.WritebackDirty_hits::.writebacks       758783                       # number of WritebackDirty hits
system.l2cache.WritebackDirty_hits::total       758783                       # number of WritebackDirty hits
system.l2cache.WritebackDirty_accesses::.writebacks       758783                       # number of WritebackDirty accesses(hits+misses)
system.l2cache.WritebackDirty_accesses::total       758783                       # number of WritebackDirty accesses(hits+misses)
system.l2cache.power_state.pwrStateResidencyTicks::UNDEFINED  90268176000                       # Cumulative time (in ticks) in various power states
system.l2cache.tags.tagsinuse              511.626601                       # Cycle average of tags in use
system.l2cache.tags.total_refs                1518564                       # Total number of references to valid blocks.
system.l2cache.tags.sampled_refs               759797                       # Sample count of references to valid blocks.
system.l2cache.tags.avg_refs                 1.998644                       # Average number of references to valid blocks.
system.l2cache.tags.warmup_cycle                76000                       # Cycle when the warmup percentage was hit.
system.l2cache.tags.occ_blocks::.writebacks     0.052694                       # Average occupied blocks per requestor
system.l2cache.tags.occ_blocks::.cpu.inst     0.308922                       # Average occupied blocks per requestor
system.l2cache.tags.occ_blocks::.cpu.data   511.264985                       # Average occupied blocks per requestor
system.l2cache.tags.occ_percent::.writebacks     0.000103                       # Average percentage of cache occupancy
system.l2cache.tags.occ_percent::.cpu.inst     0.000603                       # Average percentage of cache occupancy
system.l2cache.tags.occ_percent::.cpu.data     0.998564                       # Average percentage of cache occupancy
system.l2cache.tags.occ_percent::total       0.999271                       # Average percentage of cache occupancy
system.l2cache.tags.occ_task_id_blocks::1024          512                       # Occupied blocks per task id
system.l2cache.tags.age_task_id_blocks_1024::0           80                       # Occupied blocks per task id
system.l2cache.tags.age_task_id_blocks_1024::1          432                       # Occupied blocks per task id
system.l2cache.tags.occ_task_id_percent::1024            1                       # Percentage of cache occupancy per task id
system.l2cache.tags.tag_accesses              2278361                       # Number of tag accesses
system.l2cache.tags.data_accesses             2278361                       # Number of data accesses
system.l2cache.tags.power_state.pwrStateResidencyTicks::UNDEFINED  90268176000                       # Cumulative time (in ticks) in various power states
system.l2bar.trans_dist::ReadReq               759781                       # Transaction distribution
system.l2bar.trans_dist::ReadResp              759781                       # Transaction distribution
system.l2bar.trans_dist::WritebackDirty        758783                       # Transaction distribution
system.l2bar.pkt_count_system.dcache.mem_side::system.l2cache.cpu_side      2277067                       # Packet count per connected master and slave (bytes)
system.l2bar.pkt_count_system.icache.mem_side::system.l2cache.cpu_side         1278                       # Packet count per connected master and slave (bytes)
system.l2bar.pkt_count::total                 2278345                       # Packet count per connected master and slave (bytes)
system.l2bar.pkt_size_system.dcache.mem_side::system.l2cache.cpu_side     97147200                       # Cumulative packet size per connected master and slave (bytes)
system.l2bar.pkt_size_system.icache.mem_side::system.l2cache.cpu_side        40896                       # Cumulative packet size per connected master and slave (bytes)
system.l2bar.pkt_size::total                 97188096                       # Cumulative packet size per connected master and slave (bytes)
system.l2bar.respLayer1.occupancy             3195000                       # Layer occupancy (ticks)
system.l2bar.respLayer1.utilization               0.0                       # Layer utilization (%)
system.l2bar.reqLayer0.occupancy           4553696000                       # Layer occupancy (ticks)
system.l2bar.reqLayer0.utilization                5.0                       # Layer utilization (%)
system.l2bar.respLayer0.occupancy          3795710000                       # Layer occupancy (ticks)
system.l2bar.respLayer0.utilization               4.2                       # Layer utilization (%)
system.l2bar.power_state.pwrStateResidencyTicks::UNDEFINED  90268176000                       # Cumulative time (in ticks) in various power states
system.cpu.dtb.walker.power_state.pwrStateResidencyTicks::UNDEFINED  90268176000                       # Cumulative time (in ticks) in various power states
system.cpu.interrupts.clk_domain.clock          16000                       # Clock period in ticks
system.cpu.itb.walker.power_state.pwrStateResidencyTicks::UNDEFINED  90268176000                       # Cumulative time (in ticks) in various power states
system.cpu.power_state.numTransitions               1                       # Number of power state transitions
system.cpu.power_state.pwrStateResidencyTicks::ON  90268176000                       # Cumulative time (in ticks) in various power states

---------- End Simulation Statistics   ----------
