
---------- Begin Simulation Statistics ----------
final_tick                                 4326480000                       # Number of ticks from beginning of simulation (restored from checkpoints and never reset)
host_inst_rate                                  93384                       # Simulator instruction rate (inst/s)
host_mem_usage                               34249588                       # Number of bytes of host memory used
host_op_rate                                   180983                       # Simulator op (including micro ops) rate (op/s)
host_seconds                                    10.71                       # Real time elapsed on the host
host_tick_rate                              403999437                       # Simulator tick rate (ticks/s)
sim_freq                                 1000000000000                       # Frequency of simulated ticks
sim_insts                                     1000037                       # Number of instructions simulated
sim_ops                                       1938156                       # Number of ops (including micro ops) simulated
sim_seconds                                  0.004326                       # Number of seconds simulated
sim_ticks                                  4326480000                       # Number of ticks simulated
system.cpu.Branches                            238526                       # Number of branches fetched
system.cpu.committedInsts                     1000037                       # Number of instructions committed
system.cpu.committedOps                       1938156                       # Number of ops (including micro ops) committed
system.cpu.dtb.rdAccesses                      211660                       # TLB accesses on read requests
system.cpu.dtb.rdMisses                            19                       # TLB misses on read requests
system.cpu.dtb.wrAccesses                      156390                       # TLB accesses on write requests
system.cpu.dtb.wrMisses                           213                       # TLB misses on write requests
system.cpu.idle_fraction                            0                       # Percentage of idle cycles
system.cpu.itb.rdAccesses                           0                       # TLB accesses on read requests
system.cpu.itb.rdMisses                             0                       # TLB misses on read requests
system.cpu.itb.wrAccesses                     1367905                       # TLB accesses on write requests
system.cpu.itb.wrMisses                            48                       # TLB misses on write requests
system.cpu.not_idle_fraction                        1                       # Percentage of non-idle cycles
system.cpu.numCycles                          4326479                       # number of cpu cycles simulated
system.cpu.numWorkItemsCompleted                    0                       # number of work items this cpu completed
system.cpu.numWorkItemsStarted                      0                       # number of work items this cpu started
system.cpu.num_busy_cycles                    4326479                       # Number of busy cycles
system.cpu.num_cc_register_reads              1243643                       # number of times the CC registers were read
system.cpu.num_cc_register_writes              593689                       # number of times the CC registers were written
system.cpu.num_conditional_control_insts       185155                       # number of instructions that are conditional controls
system.cpu.num_fp_alu_accesses                  17419                       # Number of float alu accesses
system.cpu.num_fp_insts                         17419                       # number of float instructions
system.cpu.num_fp_register_reads                26627                       # number of times the floating registers were read
system.cpu.num_fp_register_writes               14825                       # number of times the floating registers were written
system.cpu.num_func_calls                       21737                       # number of times a function call or return occured
system.cpu.num_idle_cycles                          0                       # Number of idle cycles
system.cpu.num_int_alu_accesses               1919718                       # Number of integer alu accesses
system.cpu.num_int_insts                      1919718                       # number of integer instructions
system.cpu.num_int_register_reads             3784169                       # number of times the integer registers were read
system.cpu.num_int_register_writes            1557459                       # number of times the integer registers were written
system.cpu.num_load_insts                      211557                       # Number of load instructions
system.cpu.num_mem_refs                        367947                       # number of memory refs
system.cpu.num_store_insts                     156390                       # Number of store instructions
system.cpu.num_vec_alu_accesses                     0                       # Number of vector alu accesses
system.cpu.num_vec_insts                            0                       # number of vector instructions
system.cpu.num_vec_register_reads                   0                       # number of times the vector registers were read
system.cpu.num_vec_register_writes                  0                       # number of times the vector registers were written
system.cpu.op_class::No_OpClass                  7175      0.37%      0.37% # Class of executed instruction
system.cpu.op_class::IntAlu                   1527270     78.80%     79.17% # Class of executed instruction
system.cpu.op_class::IntMult                    10924      0.56%     79.73% # Class of executed instruction
system.cpu.op_class::IntDiv                     11235      0.58%     80.31% # Class of executed instruction
system.cpu.op_class::FloatAdd                    1079      0.06%     80.36% # Class of executed instruction
system.cpu.op_class::FloatCmp                       0      0.00%     80.36% # Class of executed instruction
system.cpu.op_class::FloatCvt                       0      0.00%     80.36% # Class of executed instruction
system.cpu.op_class::FloatMult                      0      0.00%     80.36% # Class of executed instruction
system.cpu.op_class::FloatMultAcc                   0      0.00%     80.36% # Class of executed instruction
system.cpu.op_class::FloatDiv                       0      0.00%     80.36% # Class of executed instruction
system.cpu.op_class::FloatMisc                      0      0.00%     80.36% # Class of executed instruction
system.cpu.op_class::FloatSqrt                      0      0.00%     80.36% # Class of executed instruction
system.cpu.op_class::SimdAdd                        0      0.00%     80.36% # Class of executed instruction
system.cpu.op_class::SimdAddAcc                     0      0.00%     80.36% # Class of executed instruction
system.cpu.op_class::SimdAlu                      140      0.01%     80.37% # Class of executed instruction
system.cpu.op_class::SimdCmp                       14      0.00%     80.37% # Class of executed instruction
system.cpu.op_class::SimdCvt                     2482      0.13%     80.50% # Class of executed instruction
system.cpu.op_class::SimdMisc                    9995      0.52%     81.02% # Class of executed instruction
system.cpu.op_class::SimdMult                       0      0.00%     81.02% # Class of executed instruction
system.cpu.op_class::SimdMultAcc                    0      0.00%     81.02% # Class of executed instruction
system.cpu.op_class::SimdShift                      0      0.00%     81.02% # Class of executed instruction
system.cpu.op_class::SimdShiftAcc                   0      0.00%     81.02% # Class of executed instruction
system.cpu.op_class::SimdDiv                        0      0.00%     81.02% # Class of executed instruction
system.cpu.op_class::SimdSqrt                       0      0.00%     81.02% # Class of executed instruction
system.cpu.op_class::SimdFloatAdd                   0      0.00%     81.02% # Class of executed instruction
system.cpu.op_class::SimdFloatAlu                   0      0.00%     81.02% # Class of executed instruction
system.cpu.op_class::SimdFloatCmp                   0      0.00%     81.02% # Class of executed instruction
system.cpu.op_class::SimdFloatCvt                   0      0.00%     81.02% # Class of executed instruction
system.cpu.op_class::SimdFloatDiv                   0      0.00%     81.02% # Class of executed instruction
system.cpu.op_class::SimdFloatMisc                  0      0.00%     81.02% # Class of executed instruction
system.cpu.op_class::SimdFloatMult                  0      0.00%     81.02% # Class of executed instruction
system.cpu.op_class::SimdFloatMultAcc               0      0.00%     81.02% # Class of executed instruction
system.cpu.op_class::SimdFloatSqrt                  0      0.00%     81.02% # Class of executed instruction
system.cpu.op_class::SimdReduceAdd                  0      0.00%     81.02% # Class of executed instruction
system.cpu.op_class::SimdReduceAlu                  0      0.00%     81.02% # Class of executed instruction
system.cpu.op_class::SimdReduceCmp                  0      0.00%     81.02% # Class of executed instruction
system.cpu.op_class::SimdFloatReduceAdd             0      0.00%     81.02% # Class of executed instruction
system.cpu.op_class::SimdFloatReduceCmp             0      0.00%     81.02% # Class of executed instruction
system.cpu.op_class::SimdAes                        0      0.00%     81.02% # Class of executed instruction
system.cpu.op_class::SimdAesMix                     0      0.00%     81.02% # Class of executed instruction
system.cpu.op_class::SimdSha1Hash                   0      0.00%     81.02% # Class of executed instruction
system.cpu.op_class::SimdSha1Hash2                  0      0.00%     81.02% # Class of executed instruction
system.cpu.op_class::SimdSha256Hash                 0      0.00%     81.02% # Class of executed instruction
system.cpu.op_class::SimdSha256Hash2                0      0.00%     81.02% # Class of executed instruction
system.cpu.op_class::SimdShaSigma2                  0      0.00%     81.02% # Class of executed instruction
system.cpu.op_class::SimdShaSigma3                  0      0.00%     81.02% # Class of executed instruction
system.cpu.op_class::SimdPredAlu                    0      0.00%     81.02% # Class of executed instruction
system.cpu.op_class::MemRead                   209119     10.79%     91.81% # Class of executed instruction
system.cpu.op_class::MemWrite                  156238      8.06%     99.87% # Class of executed instruction
system.cpu.op_class::FloatMemRead                2438      0.13%     99.99% # Class of executed instruction
system.cpu.op_class::FloatMemWrite                152      0.01%    100.00% # Class of executed instruction
system.cpu.op_class::IprAccess                      0      0.00%    100.00% # Class of executed instruction
system.cpu.op_class::InstPrefetch                   0      0.00%    100.00% # Class of executed instruction
system.cpu.op_class::total                    1938261                       # Class of executed instruction
system.cpu.workload.numSyscalls                    23                       # Number of system calls
system.dynamic_cache.flushTicks                     0                       # Ticks taken to flush
system.dynamic_cache.numFlushes                     0                       # Number of Flushes Taken
system.cache_small.demand_hits::.cpu.inst         5821                       # number of demand (read+write) hits
system.cache_small.demand_hits::.cpu.data          467                       # number of demand (read+write) hits
system.cache_small.demand_hits::total            6288                       # number of demand (read+write) hits
system.cache_small.overall_hits::.cpu.inst         5821                       # number of overall hits
system.cache_small.overall_hits::.cpu.data          467                       # number of overall hits
system.cache_small.overall_hits::total           6288                       # number of overall hits
system.cache_small.demand_misses::.cpu.inst          511                       # number of demand (read+write) misses
system.cache_small.demand_misses::.cpu.data         3895                       # number of demand (read+write) misses
system.cache_small.demand_misses::total          4406                       # number of demand (read+write) misses
system.cache_small.overall_misses::.cpu.inst          511                       # number of overall misses
system.cache_small.overall_misses::.cpu.data         3895                       # number of overall misses
system.cache_small.overall_misses::total         4406                       # number of overall misses
system.cache_small.demand_miss_latency::.cpu.inst     31300000                       # number of demand (read+write) miss cycles
system.cache_small.demand_miss_latency::.cpu.data    247748000                       # number of demand (read+write) miss cycles
system.cache_small.demand_miss_latency::total    279048000                       # number of demand (read+write) miss cycles
system.cache_small.overall_miss_latency::.cpu.inst     31300000                       # number of overall miss cycles
system.cache_small.overall_miss_latency::.cpu.data    247748000                       # number of overall miss cycles
system.cache_small.overall_miss_latency::total    279048000                       # number of overall miss cycles
system.cache_small.demand_accesses::.cpu.inst         6332                       # number of demand (read+write) accesses
system.cache_small.demand_accesses::.cpu.data         4362                       # number of demand (read+write) accesses
system.cache_small.demand_accesses::total        10694                       # number of demand (read+write) accesses
system.cache_small.overall_accesses::.cpu.inst         6332                       # number of overall (read+write) accesses
system.cache_small.overall_accesses::.cpu.data         4362                       # number of overall (read+write) accesses
system.cache_small.overall_accesses::total        10694                       # number of overall (read+write) accesses
system.cache_small.demand_miss_rate::.cpu.inst     0.080701                       # miss rate for demand accesses
system.cache_small.demand_miss_rate::.cpu.data     0.892939                       # miss rate for demand accesses
system.cache_small.demand_miss_rate::total     0.412007                       # miss rate for demand accesses
system.cache_small.overall_miss_rate::.cpu.inst     0.080701                       # miss rate for overall accesses
system.cache_small.overall_miss_rate::.cpu.data     0.892939                       # miss rate for overall accesses
system.cache_small.overall_miss_rate::total     0.412007                       # miss rate for overall accesses
system.cache_small.demand_avg_miss_latency::.cpu.inst 61252.446184                       # average overall miss latency
system.cache_small.demand_avg_miss_latency::.cpu.data 63606.675225                       # average overall miss latency
system.cache_small.demand_avg_miss_latency::total 63333.635951                       # average overall miss latency
system.cache_small.overall_avg_miss_latency::.cpu.inst 61252.446184                       # average overall miss latency
system.cache_small.overall_avg_miss_latency::.cpu.data 63606.675225                       # average overall miss latency
system.cache_small.overall_avg_miss_latency::total 63333.635951                       # average overall miss latency
system.cache_small.blocked_cycles::no_mshrs            0                       # number of cycles access was blocked
system.cache_small.blocked_cycles::no_targets            0                       # number of cycles access was blocked
system.cache_small.blocked::no_mshrs                0                       # number of cycles access was blocked
system.cache_small.blocked::no_targets              0                       # number of cycles access was blocked
system.cache_small.avg_blocked_cycles::no_mshrs          nan                       # average number of cycles each access was blocked
system.cache_small.avg_blocked_cycles::no_targets          nan                       # average number of cycles each access was blocked
system.cache_small.demand_mshr_misses::.cpu.inst          511                       # number of demand (read+write) MSHR misses
system.cache_small.demand_mshr_misses::.cpu.data         3895                       # number of demand (read+write) MSHR misses
system.cache_small.demand_mshr_misses::total         4406                       # number of demand (read+write) MSHR misses
system.cache_small.overall_mshr_misses::.cpu.inst          511                       # number of overall MSHR misses
system.cache_small.overall_mshr_misses::.cpu.data         3895                       # number of overall MSHR misses
system.cache_small.overall_mshr_misses::total         4406                       # number of overall MSHR misses
system.cache_small.demand_mshr_miss_latency::.cpu.inst     30278000                       # number of demand (read+write) MSHR miss cycles
system.cache_small.demand_mshr_miss_latency::.cpu.data    239958000                       # number of demand (read+write) MSHR miss cycles
system.cache_small.demand_mshr_miss_latency::total    270236000                       # number of demand (read+write) MSHR miss cycles
system.cache_small.overall_mshr_miss_latency::.cpu.inst     30278000                       # number of overall MSHR miss cycles
system.cache_small.overall_mshr_miss_latency::.cpu.data    239958000                       # number of overall MSHR miss cycles
system.cache_small.overall_mshr_miss_latency::total    270236000                       # number of overall MSHR miss cycles
system.cache_small.demand_mshr_miss_rate::.cpu.inst     0.080701                       # mshr miss rate for demand accesses
system.cache_small.demand_mshr_miss_rate::.cpu.data     0.892939                       # mshr miss rate for demand accesses
system.cache_small.demand_mshr_miss_rate::total     0.412007                       # mshr miss rate for demand accesses
system.cache_small.overall_mshr_miss_rate::.cpu.inst     0.080701                       # mshr miss rate for overall accesses
system.cache_small.overall_mshr_miss_rate::.cpu.data     0.892939                       # mshr miss rate for overall accesses
system.cache_small.overall_mshr_miss_rate::total     0.412007                       # mshr miss rate for overall accesses
system.cache_small.demand_avg_mshr_miss_latency::.cpu.inst 59252.446184                       # average overall mshr miss latency
system.cache_small.demand_avg_mshr_miss_latency::.cpu.data 61606.675225                       # average overall mshr miss latency
system.cache_small.demand_avg_mshr_miss_latency::total 61333.635951                       # average overall mshr miss latency
system.cache_small.overall_avg_mshr_miss_latency::.cpu.inst 59252.446184                       # average overall mshr miss latency
system.cache_small.overall_avg_mshr_miss_latency::.cpu.data 61606.675225                       # average overall mshr miss latency
system.cache_small.overall_avg_mshr_miss_latency::total 61333.635951                       # average overall mshr miss latency
system.cache_small.replacements                     0                       # number of replacements
system.cache_small.ReadReq_hits::.cpu.inst         5821                       # number of ReadReq hits
system.cache_small.ReadReq_hits::.cpu.data          467                       # number of ReadReq hits
system.cache_small.ReadReq_hits::total           6288                       # number of ReadReq hits
system.cache_small.ReadReq_misses::.cpu.inst          511                       # number of ReadReq misses
system.cache_small.ReadReq_misses::.cpu.data         3895                       # number of ReadReq misses
system.cache_small.ReadReq_misses::total         4406                       # number of ReadReq misses
system.cache_small.ReadReq_miss_latency::.cpu.inst     31300000                       # number of ReadReq miss cycles
system.cache_small.ReadReq_miss_latency::.cpu.data    247748000                       # number of ReadReq miss cycles
system.cache_small.ReadReq_miss_latency::total    279048000                       # number of ReadReq miss cycles
system.cache_small.ReadReq_accesses::.cpu.inst         6332                       # number of ReadReq accesses(hits+misses)
system.cache_small.ReadReq_accesses::.cpu.data         4362                       # number of ReadReq accesses(hits+misses)
system.cache_small.ReadReq_accesses::total        10694                       # number of ReadReq accesses(hits+misses)
system.cache_small.ReadReq_miss_rate::.cpu.inst     0.080701                       # miss rate for ReadReq accesses
system.cache_small.ReadReq_miss_rate::.cpu.data     0.892939                       # miss rate for ReadReq accesses
system.cache_small.ReadReq_miss_rate::total     0.412007                       # miss rate for ReadReq accesses
system.cache_small.ReadReq_avg_miss_latency::.cpu.inst 61252.446184                       # average ReadReq miss latency
system.cache_small.ReadReq_avg_miss_latency::.cpu.data 63606.675225                       # average ReadReq miss latency
system.cache_small.ReadReq_avg_miss_latency::total 63333.635951                       # average ReadReq miss latency
system.cache_small.ReadReq_mshr_misses::.cpu.inst          511                       # number of ReadReq MSHR misses
system.cache_small.ReadReq_mshr_misses::.cpu.data         3895                       # number of ReadReq MSHR misses
system.cache_small.ReadReq_mshr_misses::total         4406                       # number of ReadReq MSHR misses
system.cache_small.ReadReq_mshr_miss_latency::.cpu.inst     30278000                       # number of ReadReq MSHR miss cycles
system.cache_small.ReadReq_mshr_miss_latency::.cpu.data    239958000                       # number of ReadReq MSHR miss cycles
system.cache_small.ReadReq_mshr_miss_latency::total    270236000                       # number of ReadReq MSHR miss cycles
system.cache_small.ReadReq_mshr_miss_rate::.cpu.inst     0.080701                       # mshr miss rate for ReadReq accesses
system.cache_small.ReadReq_mshr_miss_rate::.cpu.data     0.892939                       # mshr miss rate for ReadReq accesses
system.cache_small.ReadReq_mshr_miss_rate::total     0.412007                       # mshr miss rate for ReadReq accesses
system.cache_small.ReadReq_avg_mshr_miss_latency::.cpu.inst 59252.446184                       # average ReadReq mshr miss latency
system.cache_small.ReadReq_avg_mshr_miss_latency::.cpu.data 61606.675225                       # average ReadReq mshr miss latency
system.cache_small.ReadReq_avg_mshr_miss_latency::total 61333.635951                       # average ReadReq mshr miss latency
system.cache_small.WritebackDirty_hits::.writebacks         3892                       # number of WritebackDirty hits
system.cache_small.WritebackDirty_hits::total         3892                       # number of WritebackDirty hits
system.cache_small.WritebackDirty_accesses::.writebacks         3892                       # number of WritebackDirty accesses(hits+misses)
system.cache_small.WritebackDirty_accesses::total         3892                       # number of WritebackDirty accesses(hits+misses)
system.cache_small.power_state.pwrStateResidencyTicks::UNDEFINED   4326480000                       # Cumulative time (in ticks) in various power states
system.cache_small.tags.tagsinuse         2537.538090                       # Cycle average of tags in use
system.cache_small.tags.total_refs                  0                       # Total number of references to valid blocks.
system.cache_small.tags.sampled_refs                0                       # Sample count of references to valid blocks.
system.cache_small.tags.avg_refs                  nan                       # Average number of references to valid blocks.
system.cache_small.tags.warmup_cycle            76000                       # Cycle when the warmup percentage was hit.
system.cache_small.tags.occ_blocks::.cpu.inst   504.852651                       # Average occupied blocks per requestor
system.cache_small.tags.occ_blocks::.cpu.data  2032.685439                       # Average occupied blocks per requestor
system.cache_small.tags.occ_percent::.cpu.inst     0.007703                       # Average percentage of cache occupancy
system.cache_small.tags.occ_percent::.cpu.data     0.031016                       # Average percentage of cache occupancy
system.cache_small.tags.occ_percent::total     0.038720                       # Average percentage of cache occupancy
system.cache_small.tags.occ_task_id_blocks::1024         4406                       # Occupied blocks per task id
system.cache_small.tags.age_task_id_blocks_1024::0           13                       # Occupied blocks per task id
system.cache_small.tags.age_task_id_blocks_1024::1           72                       # Occupied blocks per task id
system.cache_small.tags.age_task_id_blocks_1024::2          776                       # Occupied blocks per task id
system.cache_small.tags.age_task_id_blocks_1024::3         3545                       # Occupied blocks per task id
system.cache_small.tags.occ_task_id_percent::1024     0.067230                       # Percentage of cache occupancy per task id
system.cache_small.tags.tag_accesses            18992                       # Number of tag accesses
system.cache_small.tags.data_accesses           18992                       # Number of data accesses
system.cache_small.tags.power_state.pwrStateResidencyTicks::UNDEFINED   4326480000                       # Cumulative time (in ticks) in various power states
system.icache.demand_hits::.cpu.inst          1338774                       # number of demand (read+write) hits
system.icache.demand_hits::total              1338774                       # number of demand (read+write) hits
system.icache.overall_hits::.cpu.inst         1338774                       # number of overall hits
system.icache.overall_hits::total             1338774                       # number of overall hits
system.icache.demand_misses::.cpu.inst          29131                       # number of demand (read+write) misses
system.icache.demand_misses::total              29131                       # number of demand (read+write) misses
system.icache.overall_misses::.cpu.inst         29131                       # number of overall misses
system.icache.overall_misses::total             29131                       # number of overall misses
system.icache.demand_miss_latency::.cpu.inst    494180000                       # number of demand (read+write) miss cycles
system.icache.demand_miss_latency::total    494180000                       # number of demand (read+write) miss cycles
system.icache.overall_miss_latency::.cpu.inst    494180000                       # number of overall miss cycles
system.icache.overall_miss_latency::total    494180000                       # number of overall miss cycles
system.icache.demand_accesses::.cpu.inst      1367905                       # number of demand (read+write) accesses
system.icache.demand_accesses::total          1367905                       # number of demand (read+write) accesses
system.icache.overall_accesses::.cpu.inst      1367905                       # number of overall (read+write) accesses
system.icache.overall_accesses::total         1367905                       # number of overall (read+write) accesses
system.icache.demand_miss_rate::.cpu.inst     0.021296                       # miss rate for demand accesses
system.icache.demand_miss_rate::total        0.021296                       # miss rate for demand accesses
system.icache.overall_miss_rate::.cpu.inst     0.021296                       # miss rate for overall accesses
system.icache.overall_miss_rate::total       0.021296                       # miss rate for overall accesses
system.icache.demand_avg_miss_latency::.cpu.inst 16964.058906                       # average overall miss latency
system.icache.demand_avg_miss_latency::total 16964.058906                       # average overall miss latency
system.icache.overall_avg_miss_latency::.cpu.inst 16964.058906                       # average overall miss latency
system.icache.overall_avg_miss_latency::total 16964.058906                       # average overall miss latency
system.icache.blocked_cycles::no_mshrs              0                       # number of cycles access was blocked
system.icache.blocked_cycles::no_targets            0                       # number of cycles access was blocked
system.icache.blocked::no_mshrs                     0                       # number of cycles access was blocked
system.icache.blocked::no_targets                   0                       # number of cycles access was blocked
system.icache.avg_blocked_cycles::no_mshrs          nan                       # average number of cycles each access was blocked
system.icache.avg_blocked_cycles::no_targets          nan                       # average number of cycles each access was blocked
system.icache.demand_mshr_misses::.cpu.inst        29131                       # number of demand (read+write) MSHR misses
system.icache.demand_mshr_misses::total         29131                       # number of demand (read+write) MSHR misses
system.icache.overall_mshr_misses::.cpu.inst        29131                       # number of overall MSHR misses
system.icache.overall_mshr_misses::total        29131                       # number of overall MSHR misses
system.icache.demand_mshr_miss_latency::.cpu.inst    435918000                       # number of demand (read+write) MSHR miss cycles
system.icache.demand_mshr_miss_latency::total    435918000                       # number of demand (read+write) MSHR miss cycles
system.icache.overall_mshr_miss_latency::.cpu.inst    435918000                       # number of overall MSHR miss cycles
system.icache.overall_mshr_miss_latency::total    435918000                       # number of overall MSHR miss cycles
system.icache.demand_mshr_miss_rate::.cpu.inst     0.021296                       # mshr miss rate for demand accesses
system.icache.demand_mshr_miss_rate::total     0.021296                       # mshr miss rate for demand accesses
system.icache.overall_mshr_miss_rate::.cpu.inst     0.021296                       # mshr miss rate for overall accesses
system.icache.overall_mshr_miss_rate::total     0.021296                       # mshr miss rate for overall accesses
system.icache.demand_avg_mshr_miss_latency::.cpu.inst 14964.058906                       # average overall mshr miss latency
system.icache.demand_avg_mshr_miss_latency::total 14964.058906                       # average overall mshr miss latency
system.icache.overall_avg_mshr_miss_latency::.cpu.inst 14964.058906                       # average overall mshr miss latency
system.icache.overall_avg_mshr_miss_latency::total 14964.058906                       # average overall mshr miss latency
system.icache.replacements                      28914                       # number of replacements
system.icache.ReadReq_hits::.cpu.inst         1338774                       # number of ReadReq hits
system.icache.ReadReq_hits::total             1338774                       # number of ReadReq hits
system.icache.ReadReq_misses::.cpu.inst         29131                       # number of ReadReq misses
system.icache.ReadReq_misses::total             29131                       # number of ReadReq misses
system.icache.ReadReq_miss_latency::.cpu.inst    494180000                       # number of ReadReq miss cycles
system.icache.ReadReq_miss_latency::total    494180000                       # number of ReadReq miss cycles
system.icache.ReadReq_accesses::.cpu.inst      1367905                       # number of ReadReq accesses(hits+misses)
system.icache.ReadReq_accesses::total         1367905                       # number of ReadReq accesses(hits+misses)
system.icache.ReadReq_miss_rate::.cpu.inst     0.021296                       # miss rate for ReadReq accesses
system.icache.ReadReq_miss_rate::total       0.021296                       # miss rate for ReadReq accesses
system.icache.ReadReq_avg_miss_latency::.cpu.inst 16964.058906                       # average ReadReq miss latency
system.icache.ReadReq_avg_miss_latency::total 16964.058906                       # average ReadReq miss latency
system.icache.ReadReq_mshr_misses::.cpu.inst        29131                       # number of ReadReq MSHR misses
system.icache.ReadReq_mshr_misses::total        29131                       # number of ReadReq MSHR misses
system.icache.ReadReq_mshr_miss_latency::.cpu.inst    435918000                       # number of ReadReq MSHR miss cycles
system.icache.ReadReq_mshr_miss_latency::total    435918000                       # number of ReadReq MSHR miss cycles
system.icache.ReadReq_mshr_miss_rate::.cpu.inst     0.021296                       # mshr miss rate for ReadReq accesses
system.icache.ReadReq_mshr_miss_rate::total     0.021296                       # mshr miss rate for ReadReq accesses
system.icache.ReadReq_avg_mshr_miss_latency::.cpu.inst 14964.058906                       # average ReadReq mshr miss latency
system.icache.ReadReq_avg_mshr_miss_latency::total 14964.058906                       # average ReadReq mshr miss latency
system.icache.power_state.pwrStateResidencyTicks::UNDEFINED   4326480000                       # Cumulative time (in ticks) in various power states
system.icache.tags.tagsinuse               215.419663                       # Cycle average of tags in use
system.icache.tags.total_refs                  662856                       # Total number of references to valid blocks.
system.icache.tags.sampled_refs                 28914                       # Sample count of references to valid blocks.
system.icache.tags.avg_refs                 22.925088                       # Average number of references to valid blocks.
system.icache.tags.warmup_cycle                 82000                       # Cycle when the warmup percentage was hit.
system.icache.tags.occ_blocks::.cpu.inst   215.419663                       # Average occupied blocks per requestor
system.icache.tags.occ_percent::.cpu.inst     0.841483                       # Average percentage of cache occupancy
system.icache.tags.occ_percent::total        0.841483                       # Average percentage of cache occupancy
system.icache.tags.occ_task_id_blocks::1024          217                       # Occupied blocks per task id
system.icache.tags.age_task_id_blocks_1024::0           18                       # Occupied blocks per task id
system.icache.tags.age_task_id_blocks_1024::1            1                       # Occupied blocks per task id
system.icache.tags.age_task_id_blocks_1024::3          198                       # Occupied blocks per task id
system.icache.tags.occ_task_id_percent::1024     0.847656                       # Percentage of cache occupancy per task id
system.icache.tags.tag_accesses               1397036                       # Number of tag accesses
system.icache.tags.data_accesses              1397036                       # Number of data accesses
system.icache.tags.power_state.pwrStateResidencyTicks::UNDEFINED   4326480000                       # Cumulative time (in ticks) in various power states
system.membus.trans_dist::ReadReq                4406                       # Transaction distribution
system.membus.trans_dist::ReadResp               4406                       # Transaction distribution
system.membus.pkt_count_system.cache_small.mem_side::system.mem_ctrl.port         8812                       # Packet count per connected master and slave (bytes)
system.membus.pkt_count_system.cache_small.mem_side::total         8812                       # Packet count per connected master and slave (bytes)
system.membus.pkt_count::total                   8812                       # Packet count per connected master and slave (bytes)
system.membus.pkt_size_system.cache_small.mem_side::system.mem_ctrl.port       281984                       # Cumulative packet size per connected master and slave (bytes)
system.membus.pkt_size_system.cache_small.mem_side::total       281984                       # Cumulative packet size per connected master and slave (bytes)
system.membus.pkt_size::total                  281984                       # Cumulative packet size per connected master and slave (bytes)
system.membus.reqLayer2.occupancy             4406000                       # Layer occupancy (ticks)
system.membus.reqLayer2.utilization               0.1                       # Layer utilization (%)
system.membus.respLayer1.occupancy           23861750                       # Layer occupancy (ticks)
system.membus.respLayer1.utilization              0.6                       # Layer utilization (%)
system.membus.power_state.pwrStateResidencyTicks::UNDEFINED   4326480000                       # Cumulative time (in ticks) in various power states
system.mem_ctrl.bytes_read::.cpu.inst           32704                       # Number of bytes read from this memory
system.mem_ctrl.bytes_read::.cpu.data          249280                       # Number of bytes read from this memory
system.mem_ctrl.bytes_read::total              281984                       # Number of bytes read from this memory
system.mem_ctrl.bytes_inst_read::.cpu.inst        32704                       # Number of instructions bytes read from this memory
system.mem_ctrl.bytes_inst_read::total          32704                       # Number of instructions bytes read from this memory
system.mem_ctrl.num_reads::.cpu.inst              511                       # Number of read requests responded to by this memory
system.mem_ctrl.num_reads::.cpu.data             3895                       # Number of read requests responded to by this memory
system.mem_ctrl.num_reads::total                 4406                       # Number of read requests responded to by this memory
system.mem_ctrl.bw_read::.cpu.inst            7559032                       # Total read bandwidth from this memory (bytes/s)
system.mem_ctrl.bw_read::.cpu.data           57617278                       # Total read bandwidth from this memory (bytes/s)
system.mem_ctrl.bw_read::total               65176310                       # Total read bandwidth from this memory (bytes/s)
system.mem_ctrl.bw_inst_read::.cpu.inst       7559032                       # Instruction read bandwidth from this memory (bytes/s)
system.mem_ctrl.bw_inst_read::total           7559032                       # Instruction read bandwidth from this memory (bytes/s)
system.mem_ctrl.bw_total::.cpu.inst           7559032                       # Total bandwidth to/from this memory (bytes/s)
system.mem_ctrl.bw_total::.cpu.data          57617278                       # Total bandwidth to/from this memory (bytes/s)
system.mem_ctrl.bw_total::total              65176310                       # Total bandwidth to/from this memory (bytes/s)
system.mem_ctrl.avgPriority_.cpu.inst::samples       511.00                       # Average QoS priority value for accepted requests
system.mem_ctrl.avgPriority_.cpu.data::samples      3895.00                       # Average QoS priority value for accepted requests
system.mem_ctrl.priorityMinLatency       0.000000018750                       # per QoS priority minimum request to response latency (s)
system.mem_ctrl.priorityMaxLatency       0.000000574000                       # per QoS priority maximum request to response latency (s)
system.mem_ctrl.numReadWriteTurnArounds             0                       # Number of turnarounds from READ to WRITE
system.mem_ctrl.numWriteReadTurnArounds             0                       # Number of turnarounds from WRITE to READ
system.mem_ctrl.numStayReadState                 9922                       # Number of times bus staying in READ state
system.mem_ctrl.numStayWriteState                   0                       # Number of times bus staying in WRITE state
system.mem_ctrl.readReqs                         4406                       # Number of read requests accepted
system.mem_ctrl.writeReqs                           0                       # Number of write requests accepted
system.mem_ctrl.readBursts                       4406                       # Number of DRAM read bursts, including those serviced by the write queue
system.mem_ctrl.writeBursts                         0                       # Number of DRAM write bursts, including those merged in the write queue
system.mem_ctrl.servicedByWrQ                       0                       # Number of DRAM read bursts serviced by the write queue
system.mem_ctrl.mergedWrBursts                      0                       # Number of DRAM write bursts merged with an existing one
system.mem_ctrl.neitherReadNorWriteReqs             0                       # Number of requests that are neither read nor write
system.mem_ctrl.perBankRdBursts::0                363                       # Per bank write bursts
system.mem_ctrl.perBankRdBursts::1                189                       # Per bank write bursts
system.mem_ctrl.perBankRdBursts::2                190                       # Per bank write bursts
system.mem_ctrl.perBankRdBursts::3                239                       # Per bank write bursts
system.mem_ctrl.perBankRdBursts::4                342                       # Per bank write bursts
system.mem_ctrl.perBankRdBursts::5                224                       # Per bank write bursts
system.mem_ctrl.perBankRdBursts::6                201                       # Per bank write bursts
system.mem_ctrl.perBankRdBursts::7                280                       # Per bank write bursts
system.mem_ctrl.perBankRdBursts::8                326                       # Per bank write bursts
system.mem_ctrl.perBankRdBursts::9                267                       # Per bank write bursts
system.mem_ctrl.perBankRdBursts::10               342                       # Per bank write bursts
system.mem_ctrl.perBankRdBursts::11               322                       # Per bank write bursts
system.mem_ctrl.perBankRdBursts::12               202                       # Per bank write bursts
system.mem_ctrl.perBankRdBursts::13               364                       # Per bank write bursts
system.mem_ctrl.perBankRdBursts::14               371                       # Per bank write bursts
system.mem_ctrl.perBankRdBursts::15               184                       # Per bank write bursts
system.mem_ctrl.perBankWrBursts::0                  0                       # Per bank write bursts
system.mem_ctrl.perBankWrBursts::1                  0                       # Per bank write bursts
system.mem_ctrl.perBankWrBursts::2                  0                       # Per bank write bursts
system.mem_ctrl.perBankWrBursts::3                  0                       # Per bank write bursts
system.mem_ctrl.perBankWrBursts::4                  0                       # Per bank write bursts
system.mem_ctrl.perBankWrBursts::5                  0                       # Per bank write bursts
system.mem_ctrl.perBankWrBursts::6                  0                       # Per bank write bursts
system.mem_ctrl.perBankWrBursts::7                  0                       # Per bank write bursts
system.mem_ctrl.perBankWrBursts::8                  0                       # Per bank write bursts
system.mem_ctrl.perBankWrBursts::9                  0                       # Per bank write bursts
system.mem_ctrl.perBankWrBursts::10                 0                       # Per bank write bursts
system.mem_ctrl.perBankWrBursts::11                 0                       # Per bank write bursts
system.mem_ctrl.perBankWrBursts::12                 0                       # Per bank write bursts
system.mem_ctrl.perBankWrBursts::13                 0                       # Per bank write bursts
system.mem_ctrl.perBankWrBursts::14                 0                       # Per bank write bursts
system.mem_ctrl.perBankWrBursts::15                 0                       # Per bank write bursts
system.mem_ctrl.avgRdQLen                        1.00                       # Average read queue length when enqueuing
system.mem_ctrl.avgWrQLen                        0.00                       # Average write queue length when enqueuing
system.mem_ctrl.totQLat                      49205750                       # Total ticks spent queuing
system.mem_ctrl.totBusLat                    22030000                       # Total ticks spent in databus transfers
system.mem_ctrl.totMemAccLat                131818250                       # Total ticks spent from burst creation until serviced by the DRAM
system.mem_ctrl.avgQLat                      11167.90                       # Average queueing delay per DRAM burst
system.mem_ctrl.avgBusLat                     5000.00                       # Average bus latency per DRAM burst
system.mem_ctrl.avgMemAccLat                 29917.90                       # Average memory access latency per DRAM burst
system.mem_ctrl.numRdRetry                          0                       # Number of times read queue was full causing retry
system.mem_ctrl.numWrRetry                          0                       # Number of times write queue was full causing retry
system.mem_ctrl.readRowHits                      1744                       # Number of row buffer hits during reads
system.mem_ctrl.writeRowHits                        0                       # Number of row buffer hits during writes
system.mem_ctrl.readRowHitRate                  39.58                       # Row buffer hit rate for reads
system.mem_ctrl.writeRowHitRate                   nan                       # Row buffer hit rate for writes
system.mem_ctrl.readPktSize::0                      0                       # Read request sizes (log2)
system.mem_ctrl.readPktSize::1                      0                       # Read request sizes (log2)
system.mem_ctrl.readPktSize::2                      0                       # Read request sizes (log2)
system.mem_ctrl.readPktSize::3                      0                       # Read request sizes (log2)
system.mem_ctrl.readPktSize::4                      0                       # Read request sizes (log2)
system.mem_ctrl.readPktSize::5                      0                       # Read request sizes (log2)
system.mem_ctrl.readPktSize::6                   4406                       # Read request sizes (log2)
system.mem_ctrl.writePktSize::0                     0                       # Write request sizes (log2)
system.mem_ctrl.writePktSize::1                     0                       # Write request sizes (log2)
system.mem_ctrl.writePktSize::2                     0                       # Write request sizes (log2)
system.mem_ctrl.writePktSize::3                     0                       # Write request sizes (log2)
system.mem_ctrl.writePktSize::4                     0                       # Write request sizes (log2)
system.mem_ctrl.writePktSize::5                     0                       # Write request sizes (log2)
system.mem_ctrl.writePktSize::6                     0                       # Write request sizes (log2)
system.mem_ctrl.rdQLenPdf::0                     4406                       # What read queue length does an incoming req see
system.mem_ctrl.rdQLenPdf::1                        0                       # What read queue length does an incoming req see
system.mem_ctrl.rdQLenPdf::2                        0                       # What read queue length does an incoming req see
system.mem_ctrl.rdQLenPdf::3                        0                       # What read queue length does an incoming req see
system.mem_ctrl.rdQLenPdf::4                        0                       # What read queue length does an incoming req see
system.mem_ctrl.rdQLenPdf::5                        0                       # What read queue length does an incoming req see
system.mem_ctrl.rdQLenPdf::6                        0                       # What read queue length does an incoming req see
system.mem_ctrl.rdQLenPdf::7                        0                       # What read queue length does an incoming req see
system.mem_ctrl.rdQLenPdf::8                        0                       # What read queue length does an incoming req see
system.mem_ctrl.rdQLenPdf::9                        0                       # What read queue length does an incoming req see
system.mem_ctrl.rdQLenPdf::10                       0                       # What read queue length does an incoming req see
system.mem_ctrl.rdQLenPdf::11                       0                       # What read queue length does an incoming req see
system.mem_ctrl.rdQLenPdf::12                       0                       # What read queue length does an incoming req see
system.mem_ctrl.rdQLenPdf::13                       0                       # What read queue length does an incoming req see
system.mem_ctrl.rdQLenPdf::14                       0                       # What read queue length does an incoming req see
system.mem_ctrl.rdQLenPdf::15                       0                       # What read queue length does an incoming req see
system.mem_ctrl.rdQLenPdf::16                       0                       # What read queue length does an incoming req see
system.mem_ctrl.rdQLenPdf::17                       0                       # What read queue length does an incoming req see
system.mem_ctrl.rdQLenPdf::18                       0                       # What read queue length does an incoming req see
system.mem_ctrl.rdQLenPdf::19                       0                       # What read queue length does an incoming req see
system.mem_ctrl.rdQLenPdf::20                       0                       # What read queue length does an incoming req see
system.mem_ctrl.rdQLenPdf::21                       0                       # What read queue length does an incoming req see
system.mem_ctrl.rdQLenPdf::22                       0                       # What read queue length does an incoming req see
system.mem_ctrl.rdQLenPdf::23                       0                       # What read queue length does an incoming req see
system.mem_ctrl.rdQLenPdf::24                       0                       # What read queue length does an incoming req see
system.mem_ctrl.rdQLenPdf::25                       0                       # What read queue length does an incoming req see
system.mem_ctrl.rdQLenPdf::26                       0                       # What read queue length does an incoming req see
system.mem_ctrl.rdQLenPdf::27                       0                       # What read queue length does an incoming req see
system.mem_ctrl.rdQLenPdf::28                       0                       # What read queue length does an incoming req see
system.mem_ctrl.rdQLenPdf::29                       0                       # What read queue length does an incoming req see
system.mem_ctrl.rdQLenPdf::30                       0                       # What read queue length does an incoming req see
system.mem_ctrl.rdQLenPdf::31                       0                       # What read queue length does an incoming req see
system.mem_ctrl.wrQLenPdf::0                        0                       # What write queue length does an incoming req see
system.mem_ctrl.wrQLenPdf::1                        0                       # What write queue length does an incoming req see
system.mem_ctrl.wrQLenPdf::2                        0                       # What write queue length does an incoming req see
system.mem_ctrl.wrQLenPdf::3                        0                       # What write queue length does an incoming req see
system.mem_ctrl.wrQLenPdf::4                        0                       # What write queue length does an incoming req see
system.mem_ctrl.wrQLenPdf::5                        0                       # What write queue length does an incoming req see
system.mem_ctrl.wrQLenPdf::6                        0                       # What write queue length does an incoming req see
system.mem_ctrl.wrQLenPdf::7                        0                       # What write queue length does an incoming req see
system.mem_ctrl.wrQLenPdf::8                        0                       # What write queue length does an incoming req see
system.mem_ctrl.wrQLenPdf::9                        0                       # What write queue length does an incoming req see
system.mem_ctrl.wrQLenPdf::10                       0                       # What write queue length does an incoming req see
system.mem_ctrl.wrQLenPdf::11                       0                       # What write queue length does an incoming req see
system.mem_ctrl.wrQLenPdf::12                       0                       # What write queue length does an incoming req see
system.mem_ctrl.wrQLenPdf::13                       0                       # What write queue length does an incoming req see
system.mem_ctrl.wrQLenPdf::14                       0                       # What write queue length does an incoming req see
system.mem_ctrl.wrQLenPdf::15                       0                       # What write queue length does an incoming req see
system.mem_ctrl.wrQLenPdf::16                       0                       # What write queue length does an incoming req see
system.mem_ctrl.wrQLenPdf::17                       0                       # What write queue length does an incoming req see
system.mem_ctrl.wrQLenPdf::18                       0                       # What write queue length does an incoming req see
system.mem_ctrl.wrQLenPdf::19                       0                       # What write queue length does an incoming req see
system.mem_ctrl.wrQLenPdf::20                       0                       # What write queue length does an incoming req see
system.mem_ctrl.wrQLenPdf::21                       0                       # What write queue length does an incoming req see
system.mem_ctrl.wrQLenPdf::22                       0                       # What write queue length does an incoming req see
system.mem_ctrl.wrQLenPdf::23                       0                       # What write queue length does an incoming req see
system.mem_ctrl.wrQLenPdf::24                       0                       # What write queue length does an incoming req see
system.mem_ctrl.wrQLenPdf::25                       0                       # What write queue length does an incoming req see
system.mem_ctrl.wrQLenPdf::26                       0                       # What write queue length does an incoming req see
system.mem_ctrl.wrQLenPdf::27                       0                       # What write queue length does an incoming req see
system.mem_ctrl.wrQLenPdf::28                       0                       # What write queue length does an incoming req see
system.mem_ctrl.wrQLenPdf::29                       0                       # What write queue length does an incoming req see
system.mem_ctrl.wrQLenPdf::30                       0                       # What write queue length does an incoming req see
system.mem_ctrl.wrQLenPdf::31                       0                       # What write queue length does an incoming req see
system.mem_ctrl.wrQLenPdf::32                       0                       # What write queue length does an incoming req see
system.mem_ctrl.wrQLenPdf::33                       0                       # What write queue length does an incoming req see
system.mem_ctrl.wrQLenPdf::34                       0                       # What write queue length does an incoming req see
system.mem_ctrl.wrQLenPdf::35                       0                       # What write queue length does an incoming req see
system.mem_ctrl.wrQLenPdf::36                       0                       # What write queue length does an incoming req see
system.mem_ctrl.wrQLenPdf::37                       0                       # What write queue length does an incoming req see
system.mem_ctrl.wrQLenPdf::38                       0                       # What write queue length does an incoming req see
system.mem_ctrl.wrQLenPdf::39                       0                       # What write queue length does an incoming req see
system.mem_ctrl.wrQLenPdf::40                       0                       # What write queue length does an incoming req see
system.mem_ctrl.wrQLenPdf::41                       0                       # What write queue length does an incoming req see
system.mem_ctrl.wrQLenPdf::42                       0                       # What write queue length does an incoming req see
system.mem_ctrl.wrQLenPdf::43                       0                       # What write queue length does an incoming req see
system.mem_ctrl.wrQLenPdf::44                       0                       # What write queue length does an incoming req see
system.mem_ctrl.wrQLenPdf::45                       0                       # What write queue length does an incoming req see
system.mem_ctrl.wrQLenPdf::46                       0                       # What write queue length does an incoming req see
system.mem_ctrl.wrQLenPdf::47                       0                       # What write queue length does an incoming req see
system.mem_ctrl.wrQLenPdf::48                       0                       # What write queue length does an incoming req see
system.mem_ctrl.wrQLenPdf::49                       0                       # What write queue length does an incoming req see
system.mem_ctrl.wrQLenPdf::50                       0                       # What write queue length does an incoming req see
system.mem_ctrl.wrQLenPdf::51                       0                       # What write queue length does an incoming req see
system.mem_ctrl.wrQLenPdf::52                       0                       # What write queue length does an incoming req see
system.mem_ctrl.wrQLenPdf::53                       0                       # What write queue length does an incoming req see
system.mem_ctrl.wrQLenPdf::54                       0                       # What write queue length does an incoming req see
system.mem_ctrl.wrQLenPdf::55                       0                       # What write queue length does an incoming req see
system.mem_ctrl.wrQLenPdf::56                       0                       # What write queue length does an incoming req see
system.mem_ctrl.wrQLenPdf::57                       0                       # What write queue length does an incoming req see
system.mem_ctrl.wrQLenPdf::58                       0                       # What write queue length does an incoming req see
system.mem_ctrl.wrQLenPdf::59                       0                       # What write queue length does an incoming req see
system.mem_ctrl.wrQLenPdf::60                       0                       # What write queue length does an incoming req see
system.mem_ctrl.wrQLenPdf::61                       0                       # What write queue length does an incoming req see
system.mem_ctrl.wrQLenPdf::62                       0                       # What write queue length does an incoming req see
system.mem_ctrl.wrQLenPdf::63                       0                       # What write queue length does an incoming req see
system.mem_ctrl.bytesPerActivate::samples         2657                       # Bytes accessed per row activation
system.mem_ctrl.bytesPerActivate::mean     105.936018                       # Bytes accessed per row activation
system.mem_ctrl.bytesPerActivate::gmean     90.579328                       # Bytes accessed per row activation
system.mem_ctrl.bytesPerActivate::stdev     89.844497                       # Bytes accessed per row activation
system.mem_ctrl.bytesPerActivate::0-127          1597     60.11%     60.11% # Bytes accessed per row activation
system.mem_ctrl.bytesPerActivate::128-255          886     33.35%     93.45% # Bytes accessed per row activation
system.mem_ctrl.bytesPerActivate::256-383          135      5.08%     98.53% # Bytes accessed per row activation
system.mem_ctrl.bytesPerActivate::384-511           15      0.56%     99.10% # Bytes accessed per row activation
system.mem_ctrl.bytesPerActivate::512-639            5      0.19%     99.28% # Bytes accessed per row activation
system.mem_ctrl.bytesPerActivate::640-767            6      0.23%     99.51% # Bytes accessed per row activation
system.mem_ctrl.bytesPerActivate::768-895            1      0.04%     99.55% # Bytes accessed per row activation
system.mem_ctrl.bytesPerActivate::896-1023            3      0.11%     99.66% # Bytes accessed per row activation
system.mem_ctrl.bytesPerActivate::1024-1151            9      0.34%    100.00% # Bytes accessed per row activation
system.mem_ctrl.bytesPerActivate::total          2657                       # Bytes accessed per row activation
system.mem_ctrl.bytesReadDRAM                  281984                       # Total number of bytes read from DRAM
system.mem_ctrl.bytesReadWrQ                        0                       # Total number of bytes read from write queue
system.mem_ctrl.bytesWritten                        0                       # Total number of bytes written to DRAM
system.mem_ctrl.bytesReadSys                   281984                       # Total read bytes from the system interface side
system.mem_ctrl.bytesWrittenSys                     0                       # Total written bytes from the system interface side
system.mem_ctrl.avgRdBW                         65.18                       # Average DRAM read bandwidth in MiByte/s
system.mem_ctrl.avgWrBW                          0.00                       # Average achieved write bandwidth in MiByte/s
system.mem_ctrl.avgRdBWSys                      65.18                       # Average system read bandwidth in MiByte/s
system.mem_ctrl.avgWrBWSys                       0.00                       # Average system write bandwidth in MiByte/s
system.mem_ctrl.peakBW                       12800.00                       # Theoretical peak bandwidth in MiByte/s
system.mem_ctrl.busUtil                          0.51                       # Data bus utilization in percentage
system.mem_ctrl.busUtilRead                      0.51                       # Data bus utilization in percentage for reads
system.mem_ctrl.busUtilWrite                     0.00                       # Data bus utilization in percentage for writes
system.mem_ctrl.totGap                     4326039000                       # Total gap between requests
system.mem_ctrl.avgGap                      981851.79                       # Average gap between requests
system.mem_ctrl.masterReadBytes::.cpu.inst        32704                       # Per-master bytes read from memory
system.mem_ctrl.masterReadBytes::.cpu.data       249280                       # Per-master bytes read from memory
system.mem_ctrl.masterReadRate::.cpu.inst 7559031.822636416182                       # Per-master bytes read from memory rate (Bytes/sec)
system.mem_ctrl.masterReadRate::.cpu.data 57617277.787023171782                       # Per-master bytes read from memory rate (Bytes/sec)
system.mem_ctrl.masterReadAccesses::.cpu.inst          511                       # Per-master read serviced memory accesses
system.mem_ctrl.masterReadAccesses::.cpu.data         3895                       # Per-master read serviced memory accesses
system.mem_ctrl.masterReadTotalLat::.cpu.inst     14262000                       # Per-master read total memory access latency
system.mem_ctrl.masterReadTotalLat::.cpu.data    117556250                       # Per-master read total memory access latency
system.mem_ctrl.masterReadAvgLat::.cpu.inst     27909.98                       # Per-master read average memory access latency
system.mem_ctrl.masterReadAvgLat::.cpu.data     30181.32                       # Per-master read average memory access latency
system.mem_ctrl.pageHitRate                     39.58                       # Row buffer hit rate, read and write combined
system.mem_ctrl.rank1.actEnergy               9867480                       # Energy for activate commands per rank (pJ)
system.mem_ctrl.rank1.preEnergy               5237100                       # Energy for precharge commands per rank (pJ)
system.mem_ctrl.rank1.readEnergy             16978920                       # Energy for read commands per rank (pJ)
system.mem_ctrl.rank1.writeEnergy                   0                       # Energy for write commands per rank (pJ)
system.mem_ctrl.rank1.refreshEnergy      341125200.000000                       # Energy for refresh commands per rank (pJ)
system.mem_ctrl.rank1.actBackEnergy        1113380430                       # Energy for active background per rank (pJ)
system.mem_ctrl.rank1.preBackEnergy         723784800                       # Energy for precharge background per rank (pJ)
system.mem_ctrl.rank1.actPowerDownEnergy            0                       # Energy for active power-down per rank (pJ)
system.mem_ctrl.rank1.prePowerDownEnergy            0                       # Energy for precharge power-down per rank (pJ)
system.mem_ctrl.rank1.selfRefreshEnergy             0                       # Energy for self refresh per rank (pJ)
system.mem_ctrl.rank1.totalEnergy          2210373930                       # Total energy per rank (pJ)
system.mem_ctrl.rank1.averagePower         510.894291                       # Core power per rank (mW)
system.mem_ctrl.rank1.totalIdleTime                 0                       # Total Idle time Per DRAM Rank
system.mem_ctrl.rank1.memoryStateTime::IDLE   1869399000                       # Time in different power states
system.mem_ctrl.rank1.memoryStateTime::REF    144300000                       # Time in different power states
system.mem_ctrl.rank1.memoryStateTime::SREF            0                       # Time in different power states
system.mem_ctrl.rank1.memoryStateTime::PRE_PDN            0                       # Time in different power states
system.mem_ctrl.rank1.memoryStateTime::ACT   2312781000                       # Time in different power states
system.mem_ctrl.rank1.memoryStateTime::ACT_PDN            0                       # Time in different power states
system.mem_ctrl.rank0.actEnergy               9139200                       # Energy for activate commands per rank (pJ)
system.mem_ctrl.rank0.preEnergy               4846215                       # Energy for precharge commands per rank (pJ)
system.mem_ctrl.rank0.readEnergy             14479920                       # Energy for read commands per rank (pJ)
system.mem_ctrl.rank0.writeEnergy                   0                       # Energy for write commands per rank (pJ)
system.mem_ctrl.rank0.refreshEnergy      341125200.000000                       # Energy for refresh commands per rank (pJ)
system.mem_ctrl.rank0.actBackEnergy        1039281570                       # Energy for active background per rank (pJ)
system.mem_ctrl.rank0.preBackEnergy         786183840                       # Energy for precharge background per rank (pJ)
system.mem_ctrl.rank0.actPowerDownEnergy            0                       # Energy for active power-down per rank (pJ)
system.mem_ctrl.rank0.prePowerDownEnergy            0                       # Energy for precharge power-down per rank (pJ)
system.mem_ctrl.rank0.selfRefreshEnergy             0                       # Energy for self refresh per rank (pJ)
system.mem_ctrl.rank0.totalEnergy          2195055945                       # Total energy per rank (pJ)
system.mem_ctrl.rank0.averagePower         507.353771                       # Core power per rank (mW)
system.mem_ctrl.rank0.totalIdleTime                 0                       # Total Idle time Per DRAM Rank
system.mem_ctrl.rank0.memoryStateTime::IDLE   2032205000                       # Time in different power states
system.mem_ctrl.rank0.memoryStateTime::REF    144300000                       # Time in different power states
system.mem_ctrl.rank0.memoryStateTime::SREF            0                       # Time in different power states
system.mem_ctrl.rank0.memoryStateTime::PRE_PDN            0                       # Time in different power states
system.mem_ctrl.rank0.memoryStateTime::ACT   2149975000                       # Time in different power states
system.mem_ctrl.rank0.memoryStateTime::ACT_PDN            0                       # Time in different power states
system.mem_ctrl.power_state.pwrStateResidencyTicks::UNDEFINED   4326480000                       # Cumulative time (in ticks) in various power states
system.cache_medium.blocked_cycles::no_mshrs            0                       # number of cycles access was blocked
system.cache_medium.blocked_cycles::no_targets            0                       # number of cycles access was blocked
system.cache_medium.blocked::no_mshrs               0                       # number of cycles access was blocked
system.cache_medium.blocked::no_targets             0                       # number of cycles access was blocked
system.cache_medium.avg_blocked_cycles::no_mshrs          nan                       # average number of cycles each access was blocked
system.cache_medium.avg_blocked_cycles::no_targets          nan                       # average number of cycles each access was blocked
system.cache_medium.replacements                    0                       # number of replacements
system.cache_medium.power_state.pwrStateResidencyTicks::UNDEFINED   4326480000                       # Cumulative time (in ticks) in various power states
system.cache_medium.tags.tagsinuse                  0                       # Cycle average of tags in use
system.cache_medium.tags.total_refs                 0                       # Total number of references to valid blocks.
system.cache_medium.tags.sampled_refs               0                       # Sample count of references to valid blocks.
system.cache_medium.tags.avg_refs                 nan                       # Average number of references to valid blocks.
system.cache_medium.tags.warmup_cycle               0                       # Cycle when the warmup percentage was hit.
system.cache_medium.tags.tag_accesses               0                       # Number of tag accesses
system.cache_medium.tags.data_accesses              0                       # Number of data accesses
system.cache_medium.tags.power_state.pwrStateResidencyTicks::UNDEFINED   4326480000                       # Cumulative time (in ticks) in various power states
system.clk_domain.clock                          1000                       # Clock period in ticks
system.clk_domain.voltage_domain.voltage            1                       # Voltage in Volts
system.dcache.demand_hits::.cpu.data           361385                       # number of demand (read+write) hits
system.dcache.demand_hits::total               361385                       # number of demand (read+write) hits
system.dcache.overall_hits::.cpu.data          361385                       # number of overall hits
system.dcache.overall_hits::total              361385                       # number of overall hits
system.dcache.demand_misses::.cpu.data           6560                       # number of demand (read+write) misses
system.dcache.demand_misses::total               6560                       # number of demand (read+write) misses
system.dcache.overall_misses::.cpu.data          6560                       # number of overall misses
system.dcache.overall_misses::total              6560                       # number of overall misses
system.dcache.demand_miss_latency::.cpu.data    355923000                       # number of demand (read+write) miss cycles
system.dcache.demand_miss_latency::total    355923000                       # number of demand (read+write) miss cycles
system.dcache.overall_miss_latency::.cpu.data    355923000                       # number of overall miss cycles
system.dcache.overall_miss_latency::total    355923000                       # number of overall miss cycles
system.dcache.demand_accesses::.cpu.data       367945                       # number of demand (read+write) accesses
system.dcache.demand_accesses::total           367945                       # number of demand (read+write) accesses
system.dcache.overall_accesses::.cpu.data       367945                       # number of overall (read+write) accesses
system.dcache.overall_accesses::total          367945                       # number of overall (read+write) accesses
system.dcache.demand_miss_rate::.cpu.data     0.017829                       # miss rate for demand accesses
system.dcache.demand_miss_rate::total        0.017829                       # miss rate for demand accesses
system.dcache.overall_miss_rate::.cpu.data     0.017829                       # miss rate for overall accesses
system.dcache.overall_miss_rate::total       0.017829                       # miss rate for overall accesses
system.dcache.demand_avg_miss_latency::.cpu.data 54256.554878                       # average overall miss latency
system.dcache.demand_avg_miss_latency::total 54256.554878                       # average overall miss latency
system.dcache.overall_avg_miss_latency::.cpu.data 54256.554878                       # average overall miss latency
system.dcache.overall_avg_miss_latency::total 54256.554878                       # average overall miss latency
system.dcache.blocked_cycles::no_mshrs              0                       # number of cycles access was blocked
system.dcache.blocked_cycles::no_targets            0                       # number of cycles access was blocked
system.dcache.blocked::no_mshrs                     0                       # number of cycles access was blocked
system.dcache.blocked::no_targets                   0                       # number of cycles access was blocked
system.dcache.avg_blocked_cycles::no_mshrs          nan                       # average number of cycles each access was blocked
system.dcache.avg_blocked_cycles::no_targets          nan                       # average number of cycles each access was blocked
system.dcache.writebacks::.writebacks            5113                       # number of writebacks
system.dcache.writebacks::total                  5113                       # number of writebacks
system.dcache.demand_mshr_misses::.cpu.data         6560                       # number of demand (read+write) MSHR misses
system.dcache.demand_mshr_misses::total          6560                       # number of demand (read+write) MSHR misses
system.dcache.overall_mshr_misses::.cpu.data         6560                       # number of overall MSHR misses
system.dcache.overall_mshr_misses::total         6560                       # number of overall MSHR misses
system.dcache.demand_mshr_miss_latency::.cpu.data    342803000                       # number of demand (read+write) MSHR miss cycles
system.dcache.demand_mshr_miss_latency::total    342803000                       # number of demand (read+write) MSHR miss cycles
system.dcache.overall_mshr_miss_latency::.cpu.data    342803000                       # number of overall MSHR miss cycles
system.dcache.overall_mshr_miss_latency::total    342803000                       # number of overall MSHR miss cycles
system.dcache.demand_mshr_miss_rate::.cpu.data     0.017829                       # mshr miss rate for demand accesses
system.dcache.demand_mshr_miss_rate::total     0.017829                       # mshr miss rate for demand accesses
system.dcache.overall_mshr_miss_rate::.cpu.data     0.017829                       # mshr miss rate for overall accesses
system.dcache.overall_mshr_miss_rate::total     0.017829                       # mshr miss rate for overall accesses
system.dcache.demand_avg_mshr_miss_latency::.cpu.data 52256.554878                       # average overall mshr miss latency
system.dcache.demand_avg_mshr_miss_latency::total 52256.554878                       # average overall mshr miss latency
system.dcache.overall_avg_mshr_miss_latency::.cpu.data 52256.554878                       # average overall mshr miss latency
system.dcache.overall_avg_mshr_miss_latency::total 52256.554878                       # average overall mshr miss latency
system.dcache.replacements                       6304                       # number of replacements
system.dcache.ReadReq_hits::.cpu.data          209868                       # number of ReadReq hits
system.dcache.ReadReq_hits::total              209868                       # number of ReadReq hits
system.dcache.ReadReq_misses::.cpu.data          1791                       # number of ReadReq misses
system.dcache.ReadReq_misses::total              1791                       # number of ReadReq misses
system.dcache.ReadReq_miss_latency::.cpu.data     63897000                       # number of ReadReq miss cycles
system.dcache.ReadReq_miss_latency::total     63897000                       # number of ReadReq miss cycles
system.dcache.ReadReq_accesses::.cpu.data       211659                       # number of ReadReq accesses(hits+misses)
system.dcache.ReadReq_accesses::total          211659                       # number of ReadReq accesses(hits+misses)
system.dcache.ReadReq_miss_rate::.cpu.data     0.008462                       # miss rate for ReadReq accesses
system.dcache.ReadReq_miss_rate::total       0.008462                       # miss rate for ReadReq accesses
system.dcache.ReadReq_avg_miss_latency::.cpu.data 35676.716918                       # average ReadReq miss latency
system.dcache.ReadReq_avg_miss_latency::total 35676.716918                       # average ReadReq miss latency
system.dcache.ReadReq_mshr_misses::.cpu.data         1791                       # number of ReadReq MSHR misses
system.dcache.ReadReq_mshr_misses::total         1791                       # number of ReadReq MSHR misses
system.dcache.ReadReq_mshr_miss_latency::.cpu.data     60315000                       # number of ReadReq MSHR miss cycles
system.dcache.ReadReq_mshr_miss_latency::total     60315000                       # number of ReadReq MSHR miss cycles
system.dcache.ReadReq_mshr_miss_rate::.cpu.data     0.008462                       # mshr miss rate for ReadReq accesses
system.dcache.ReadReq_mshr_miss_rate::total     0.008462                       # mshr miss rate for ReadReq accesses
system.dcache.ReadReq_avg_mshr_miss_latency::.cpu.data 33676.716918                       # average ReadReq mshr miss latency
system.dcache.ReadReq_avg_mshr_miss_latency::total 33676.716918                       # average ReadReq mshr miss latency
system.dcache.WriteReq_hits::.cpu.data         151517                       # number of WriteReq hits
system.dcache.WriteReq_hits::total             151517                       # number of WriteReq hits
system.dcache.WriteReq_misses::.cpu.data         4769                       # number of WriteReq misses
system.dcache.WriteReq_misses::total             4769                       # number of WriteReq misses
system.dcache.WriteReq_miss_latency::.cpu.data    292026000                       # number of WriteReq miss cycles
system.dcache.WriteReq_miss_latency::total    292026000                       # number of WriteReq miss cycles
[...]
system.dcache.tags.age_task_id_blocks_1024::1           70                       # Occupied blocks per task id
system.dcache.tags.age_task_id_blocks_1024::2          177                       # Occupied blocks per task id
system.dcache.tags.occ_task_id_percent::1024            1                       # Percentage of cache occupancy per task id
system.dcache.tags.tag_accesses               2617377                       # Number of tag accesses
system.dcache.tags.data_accesses              2617377                       # Number of data accesses
system.dcache.tags.power_state.pwrStateResidencyTicks::UNDEFINED  29940599000                       # Cumulative time (in ticks) in various power states
system.cache_large.blocked_cycles::no_mshrs            0                       # number of cycles access was blocked
system.cache_large.blocked_cycles::no_targets            0                       # number of cycles access was blocked
system.cache_large.blocked::no_mshrs                0                       # number of cycles access was blocked
system.cache_large.blocked::no_targets              0                       # number of cycles access was blocked
system.cache_large.avg_blocked_cycles::no_mshrs          nan                       # average number of cycles each access was blocked
system.cache_large.avg_blocked_cycles::no_targets          nan                       # average number of cycles each access was blocked
system.cache_large.replacements                     0                       # number of replacements
system.cache_large.power_state.pwrStateResidencyTicks::UNDEFINED  29940599000                       # Cumulative time (in ticks) in various power states
system.cache_large.tags.tagsinuse                   0                       # Cycle average of tags in use
system.cache_large.tags.total_refs                  0                       # Total number of references to valid blocks.
system.cache_large.tags.sampled_refs                0                       # Sample count of references to valid blocks.
system.cache_large.tags.avg_refs                  nan                       # Average number of references to valid blocks.
system.cache_large.tags.warmup_cycle                0                       # Cycle when the warmup percentage was hit.
system.cache_large.tags.tag_accesses                0                       # Number of tag accesses
system.cache_large.tags.data_accesses               0                       # Number of data accesses
system.cache_large.tags.power_state.pwrStateResidencyTicks::UNDEFINED  29940599000                       # Cumulative time (in ticks) in various power states
system.l2cache.demand_hits::.cpu.inst          161547                       # number of demand (read+write) hits
system.l2cache.demand_hits::.cpu.data           15446                       # number of demand (read+write) hits
system.l2cache.demand_hits::total              176993                       # number of demand (read+write) hits
system.l2cache.overall_hits::.cpu.inst         161547                       # number of overall hits
system.l2cache.overall_hits::.cpu.data          15446                       # number of overall hits
system.l2cache.overall_hits::total             176993                       # number of overall hits
system.l2cache.demand_misses::.cpu.inst         40699                       # number of demand (read+write) misses
system.l2cache.demand_misses::.cpu.data         28960                       # number of demand (read+write) misses
system.l2cache.demand_misses::total             69659                       # number of demand (read+write) misses
system.l2cache.overall_misses::.cpu.inst        40699                       # number of overall misses
system.l2cache.overall_misses::.cpu.data        28960                       # number of overall misses
system.l2cache.overall_misses::total            69659                       # number of overall misses
system.l2cache.demand_miss_latency::.cpu.inst    559557000                       # number of demand (read+write) miss cycles
system.l2cache.demand_miss_latency::.cpu.data   1957003000                       # number of demand (read+write) miss cycles
system.l2cache.demand_miss_latency::total   2516560000                       # number of demand (read+write) miss cycles
system.l2cache.overall_miss_latency::.cpu.inst    559557000                       # number of overall miss cycles
system.l2cache.overall_miss_latency::.cpu.data   1957003000                       # number of overall miss cycles
system.l2cache.overall_miss_latency::total   2516560000                       # number of overall miss cycles
system.l2cache.demand_accesses::.cpu.inst       202246                       # number of demand (read+write) accesses
system.l2cache.demand_accesses::.cpu.data        44406                       # number of demand (read+write) accesses
system.l2cache.demand_accesses::total          246652                       # number of demand (read+write) accesses
system.l2cache.overall_accesses::.cpu.inst       202246                       # number of overall (read+write) accesses
system.l2cache.overall_accesses::.cpu.data        44406                       # number of overall (read+write) accesses
system.l2cache.overall_accesses::total         246652                       # number of overall (read+write) accesses
system.l2cache.demand_miss_rate::.cpu.inst     0.201235                       # miss rate for demand accesses
system.l2cache.demand_miss_rate::.cpu.data     0.652164                       # miss rate for demand accesses
system.l2cache.demand_miss_rate::total       0.282418                       # miss rate for demand accesses
system.l2cache.overall_miss_rate::.cpu.inst     0.201235                       # miss rate for overall accesses
system.l2cache.overall_miss_rate::.cpu.data     0.652164                       # miss rate for overall accesses
system.l2cache.overall_miss_rate::total      0.282418                       # miss rate for overall accesses
system.l2cache.demand_avg_miss_latency::.cpu.inst 13748.667043                       # average overall miss latency
system.l2cache.demand_avg_miss_latency::.cpu.data 67576.070442                       # average overall miss latency
system.l2cache.demand_avg_miss_latency::total 36126.846495                       # average overall miss latency
system.l2cache.overall_avg_miss_latency::.cpu.inst 13748.667043                       # average overall miss latency
system.l2cache.overall_avg_miss_latency::.cpu.data 67576.070442                       # average overall miss latency
system.l2cache.overall_avg_miss_latency::total 36126.846495                       # average overall miss latency
system.l2cache.blocked_cycles::no_mshrs             0                       # number of cycles access was blocked
system.l2cache.blocked_cycles::no_targets            0                       # number of cycles access was blocked
system.l2cache.blocked::no_mshrs                    0                       # number of cycles access was blocked
system.l2cache.blocked::no_targets                  0                       # number of cycles access was blocked
system.l2cache.avg_blocked_cycles::no_mshrs          nan                       # average number of cycles each access was blocked
system.l2cache.avg_blocked_cycles::no_targets          nan                       # average number of cycles each access was blocked
system.l2cache.writebacks::.writebacks          29690                       # number of writebacks
system.l2cache.writebacks::total                29690                       # number of writebacks
system.l2cache.demand_mshr_misses::.cpu.inst        40699                       # number of demand (read+write) MSHR misses
system.l2cache.demand_mshr_misses::.cpu.data        28960                       # number of demand (read+write) MSHR misses
system.l2cache.demand_mshr_misses::total        69659                       # number of demand (read+write) MSHR misses
system.l2cache.overall_mshr_misses::.cpu.inst        40699                       # number of overall MSHR misses
system.l2cache.overall_mshr_misses::.cpu.data        28960                       # number of overall MSHR misses
system.l2cache.overall_mshr_misses::total        69659                       # number of overall MSHR misses
system.l2cache.demand_mshr_miss_latency::.cpu.inst    478159000                       # number of demand (read+write) MSHR miss cycles
system.l2cache.demand_mshr_miss_latency::.cpu.data   1899083000                       # number of demand (read+write) MSHR miss cycles
system.l2cache.demand_mshr_miss_latency::total   2377242000                       # number of demand (read+write) MSHR miss cycles
system.l2cache.overall_mshr_miss_latency::.cpu.inst    478159000                       # number of overall MSHR miss cycles
system.l2cache.overall_mshr_miss_latency::.cpu.data   1899083000                       # number of overall MSHR miss cycles
system.l2cache.overall_mshr_miss_latency::total   2377242000                       # number of overall MSHR miss cycles
system.l2cache.demand_mshr_miss_rate::.cpu.inst     0.201235                       # mshr miss rate for demand accesses
system.l2cache.demand_mshr_miss_rate::.cpu.data     0.652164                       # mshr miss rate for demand accesses
system.l2cache.demand_mshr_miss_rate::total     0.282418                       # mshr miss rate for demand accesses
system.l2cache.overall_mshr_miss_rate::.cpu.inst     0.201235                       # mshr miss rate for overall accesses
system.l2cache.overall_mshr_miss_rate::.cpu.data     0.652164                       # mshr miss rate for overall accesses
system.l2cache.overall_mshr_miss_rate::total     0.282418                       # mshr miss rate for overall accesses
system.l2cache.demand_avg_mshr_miss_latency::.cpu.inst 11748.667043                       # average overall mshr miss latency
system.l2cache.demand_avg_mshr_miss_latency::.cpu.data 65576.070442                       # average overall mshr miss latency
system.l2cache.demand_avg_mshr_miss_latency::total 34126.846495                       # average overall mshr miss latency
system.l2cache.overall_avg_mshr_miss_latency::.cpu.inst 11748.667043                       # average overall mshr miss latency
system.l2cache.overall_avg_mshr_miss_latency::.cpu.data 65576.070442                       # average overall mshr miss latency
system.l2cache.overall_avg_mshr_miss_latency::total 34126.846495                       # average overall mshr miss latency
system.l2cache.replacements                     90577                       # number of replacements
system.l2cache.ReadReq_hits::.cpu.inst         161547                       # number of ReadReq hits
system.l2cache.ReadReq_hits::.cpu.data          15446                       # number of ReadReq hits
system.l2cache.ReadReq_hits::total             176993                       # number of ReadReq hits
system.l2cache.ReadReq_misses::.cpu.inst        40699                       # number of ReadReq misses
system.l2cache.ReadReq_misses::.cpu.data        28960                       # number of ReadReq misses
system.l2cache.ReadReq_misses::total            69659                       # number of ReadReq misses
system.l2cache.ReadReq_miss_latency::.cpu.inst    559557000                       # number of ReadReq miss cycles
system.l2cache.ReadReq_miss_latency::.cpu.data   1957003000                       # number of ReadReq miss cycles
system.l2cache.ReadReq_miss_latency::total   2516560000                       # number of ReadReq miss cycles
system.l2cache.ReadReq_accesses::.cpu.inst       202246                       # number of ReadReq accesses(hits+misses)
system.l2cache.ReadReq_accesses::.cpu.data        44406                       # number of ReadReq accesses(hits+misses)
system.l2cache.ReadReq_accesses::total         246652                       # number of ReadReq accesses(hits+misses)
system.l2cache.ReadReq_miss_rate::.cpu.inst     0.201235                       # miss rate for ReadReq accesses
system.l2cache.ReadReq_miss_rate::.cpu.data     0.652164                       # miss rate for ReadReq accesses
system.l2cache.ReadReq_miss_rate::total      0.282418                       # miss rate for ReadReq accesses
system.l2cache.ReadReq_avg_miss_latency::.cpu.inst 13748.667043                       # average ReadReq miss latency
system.l2cache.ReadReq_avg_miss_latency::.cpu.data 67576.070442                       # average ReadReq miss latency
system.l2cache.ReadReq_avg_miss_latency::total 36126.846495                       # average ReadReq miss latency
system.l2cache.ReadReq_mshr_misses::.cpu.inst        40699                       # number of ReadReq MSHR misses
system.l2cache.ReadReq_mshr_misses::.cpu.data        28960                       # number of ReadReq MSHR misses
system.l2cache.ReadReq_mshr_misses::total        69659                       # number of ReadReq MSHR misses
system.l2cache.ReadReq_mshr_miss_latency::.cpu.inst    478159000                       # number of ReadReq MSHR miss cycles
system.l2cache.ReadReq_mshr_miss_latency::.cpu.data   1899083000                       # number of ReadReq MSHR miss cycles
system.l2cache.ReadReq_mshr_miss_latency::total   2377242000                       # number of ReadReq MSHR miss cycles
system.l2cache.ReadReq_mshr_miss_rate::.cpu.inst     0.201235                       # mshr miss rate for ReadReq accesses
system.l2cache.ReadReq_mshr_miss_rate::.cpu.data     0.652164                       # mshr miss rate for ReadReq accesses
system.l2cache.ReadReq_mshr_miss_rate::total     0.282418                       # mshr miss rate for ReadReq accesses
system.l2cache.ReadReq_avg_mshr_miss_latency::.cpu.inst 11748.667043                       # average ReadReq mshr miss latency
system.l2cache.ReadReq_avg_mshr_miss_latency::.cpu.data 65576.070442                       # average ReadReq mshr miss latency
system.l2cache.ReadReq_avg_mshr_miss_latency::total 34126.846495                       # average ReadReq mshr miss latency
system.l2cache.WritebackDirty_hits::.writebacks        36243                       # number of WritebackDirty hits
system.l2cache.WritebackDirty_hits::total        36243                       # number of WritebackDirty hits
system.l2cache.WritebackDirty_accesses::.writebacks        36243                       # number of WritebackDirty accesses(hits+misses)
system.l2cache.WritebackDirty_accesses::total        36243                       # number of WritebackDirty accesses(hits+misses)
system.l2cache.power_state.pwrStateResidencyTicks::UNDEFINED  29940599000                       # Cumulative time (in ticks) in various power states
system.l2cache.tags.tagsinuse              509.619716                       # Cycle average of tags in use
system.l2cache.tags.total_refs                 282895                       # Total number of references to valid blocks.
system.l2cache.tags.sampled_refs                91089                       # Sample count of references to valid blocks.
system.l2cache.tags.avg_refs                 3.105699                       # Average number of references to valid blocks.
system.l2cache.tags.warmup_cycle                78000                       # Cycle when the warmup percentage was hit.
system.l2cache.tags.occ_blocks::.writebacks   214.548793                       # Average occupied blocks per requestor
system.l2cache.tags.occ_blocks::.cpu.inst    36.469371                       # Average occupied blocks per requestor
system.l2cache.tags.occ_blocks::.cpu.data   258.601552                       # Average occupied blocks per requestor
system.l2cache.tags.occ_percent::.writebacks     0.419041                       # Average percentage of cache occupancy
system.l2cache.tags.occ_percent::.cpu.inst     0.071229                       # Average percentage of cache occupancy
system.l2cache.tags.occ_percent::.cpu.data     0.505081                       # Average percentage of cache occupancy
system.l2cache.tags.occ_percent::total       0.995351                       # Average percentage of cache occupancy
system.l2cache.tags.occ_task_id_blocks::1024          512                       # Occupied blocks per task id
system.l2cache.tags.age_task_id_blocks_1024::0           16                       # Occupied blocks per task id
system.l2cache.tags.age_task_id_blocks_1024::1           82                       # Occupied blocks per task id
system.l2cache.tags.age_task_id_blocks_1024::2          374                       # Occupied blocks per task id
system.l2cache.tags.age_task_id_blocks_1024::3           40                       # Occupied blocks per task id
system.l2cache.tags.occ_task_id_percent::1024            1                       # Percentage of cache occupancy per task id
system.l2cache.tags.tag_accesses               373984                       # Number of tag accesses
system.l2cache.tags.data_accesses              373984                       # Number of data accesses
system.l2cache.tags.power_state.pwrStateResidencyTicks::UNDEFINED  29940599000                       # Cumulative time (in ticks) in various power states
system.l2bar.trans_dist::ReadReq               246652                       # Transaction distribution
system.l2bar.trans_dist::ReadResp              246652                       # Transaction distribution
system.l2bar.trans_dist::WritebackDirty         36243                       # Transaction distribution
system.l2bar.pkt_count_system.dcache.mem_side::system.l2cache.cpu_side       125055                       # Packet count per connected master and slave (bytes)
system.l2bar.pkt_count_system.icache.mem_side::system.l2cache.cpu_side       404492                       # Packet count per connected master and slave (bytes)
system.l2bar.pkt_count::total                  529547                       # Packet count per connected master and slave (bytes)
system.l2bar.pkt_size_system.dcache.mem_side::system.l2cache.cpu_side      5161536                       # Cumulative packet size per connected master and slave (bytes)
system.l2bar.pkt_size_system.icache.mem_side::system.l2cache.cpu_side     12943744                       # Cumulative packet size per connected master and slave (bytes)
system.l2bar.pkt_size::total                 18105280                       # Cumulative packet size per connected master and slave (bytes)
system.l2bar.respLayer1.occupancy          1011230000                       # Layer occupancy (ticks)
system.l2bar.respLayer1.utilization               3.4                       # Layer utilization (%)
system.l2bar.reqLayer0.occupancy            427867000                       # Layer occupancy (ticks)
system.l2bar.reqLayer0.utilization                1.4                       # Layer utilization (%)
system.l2bar.respLayer0.occupancy           222030000                       # Layer occupancy (ticks)
system.l2bar.respLayer0.utilization               0.7                       # Layer utilization (%)
system.l2bar.power_state.pwrStateResidencyTicks::UNDEFINED  29940599000                       # Cumulative time (in ticks) in various power states
system.cpu.dtb.walker.power_state.pwrStateResidencyTicks::UNDEFINED  29940599000                       # Cumulative time (in ticks) in various power states
system.cpu.interrupts.clk_domain.clock          16000                       # Clock period in ticks
system.cpu.itb.walker.power_state.pwrStateResidencyTicks::UNDEFINED  29940599000                       # Cumulative time (in ticks) in various power states
system.cpu.power_state.numTransitions               1                       # Number of power state transitions
system.cpu.power_state.pwrStateResidencyTicks::ON  29940599000                       # Cumulative time (in ticks) in various power states

---------- End Simulation Statistics   ----------
