
---------- Begin Simulation Statistics ----------
final_tick                                 5052049000                       # Number of ticks from beginning of simulation (restored from checkpoints and never reset)
host_inst_rate                                 253904                       # Simulator instruction rate (inst/s)
host_mem_usage                                1286032                       # Number of bytes of host memory used
host_op_rate                                   496159                       # Simulator op (including micro ops) rate (op/s)
host_seconds                                     3.94                       # Real time elapsed on the host
host_tick_rate                             1282634809                       # Simulator tick rate (ticks/s)
sim_freq                                 1000000000000                       # Frequency of simulated ticks
sim_insts                                     1000014                       # Number of instructions simulated
sim_ops                                       1954253                       # Number of ops (including micro ops) simulated
sim_seconds                                  0.005052                       # Number of seconds simulated
sim_ticks                                  5052049000                       # Number of ticks simulated
system.cpu.Branches                            218455                       # Number of branches fetched
system.cpu.committedInsts                     1000014                       # Number of instructions committed
system.cpu.committedOps                       1954253                       # Number of ops (including micro ops) committed
system.cpu.dtb.rdAccesses                      183710                       # TLB accesses on read requests
system.cpu.dtb.rdMisses                            26                       # TLB misses on read requests
system.cpu.dtb.wrAccesses                      129905                       # TLB accesses on write requests
system.cpu.dtb.wrMisses                            92                       # TLB misses on write requests
system.cpu.idle_fraction                            0                       # Percentage of idle cycles
system.cpu.itb.rdAccesses                           0                       # TLB accesses on read requests
system.cpu.itb.rdMisses                             0                       # TLB misses on read requests
system.cpu.itb.wrAccesses                     1332059                       # TLB accesses on write requests
system.cpu.itb.wrMisses                            73                       # TLB misses on write requests
system.cpu.not_idle_fraction                        1                       # Percentage of non-idle cycles
system.cpu.numCycles                          5052038                       # number of cpu cycles simulated
system.cpu.numWorkItemsCompleted                    0                       # number of work items this cpu completed
system.cpu.numWorkItemsStarted                      0                       # number of work items this cpu started
system.cpu.num_busy_cycles                    5052038                       # Number of busy cycles
system.cpu.num_cc_register_reads              1246214                       # number of times the CC registers were read
system.cpu.num_cc_register_writes              641789                       # number of times the CC registers were written
system.cpu.num_conditional_control_insts       167423                       # number of instructions that are conditional controls
system.cpu.num_fp_alu_accesses                  88049                       # Number of float alu accesses
system.cpu.num_fp_insts                         88049                       # number of float instructions
system.cpu.num_fp_register_reads               131489                       # number of times the floating registers were read
system.cpu.num_fp_register_writes               68803                       # number of times the floating registers were written
system.cpu.num_func_calls                       28190                       # number of times a function call or return occured
system.cpu.num_idle_cycles                          0                       # Number of idle cycles
system.cpu.num_int_alu_accesses               1891953                       # Number of integer alu accesses
system.cpu.num_int_insts                      1891953                       # number of integer instructions
system.cpu.num_int_register_reads             3656573                       # number of times the integer registers were read
system.cpu.num_int_register_writes            1556287                       # number of times the integer registers were written
system.cpu.num_load_insts                      183677                       # Number of load instructions
system.cpu.num_mem_refs                        313357                       # number of memory refs
system.cpu.num_store_insts                     129680                       # Number of store instructions
system.cpu.num_vec_alu_accesses                     0                       # Number of vector alu accesses
system.cpu.num_vec_insts                            0                       # number of vector instructions
system.cpu.num_vec_register_reads                   0                       # number of times the vector registers were read
system.cpu.num_vec_register_writes                  0                       # number of times the vector registers were written
system.cpu.op_class::No_OpClass                 15151      0.78%      0.78% # Class of executed instruction
system.cpu.op_class::IntAlu                   1550724     79.35%     80.13% # Class of executed instruction
system.cpu.op_class::IntMult                     1537      0.08%     80.20% # Class of executed instruction
system.cpu.op_class::IntDiv                     13504      0.69%     80.90% # Class of executed instruction
system.cpu.op_class::FloatAdd                    1167      0.06%     80.96% # Class of executed instruction
system.cpu.op_class::FloatCmp                       0      0.00%     80.96% # Class of executed instruction
system.cpu.op_class::FloatCvt                       0      0.00%     80.96% # Class of executed instruction
system.cpu.op_class::FloatMult                      0      0.00%     80.96% # Class of executed instruction
system.cpu.op_class::FloatMultAcc                   0      0.00%     80.96% # Class of executed instruction
system.cpu.op_class::FloatDiv                       0      0.00%     80.96% # Class of executed instruction
system.cpu.op_class::FloatMisc                      0      0.00%     80.96% # Class of executed instruction
system.cpu.op_class::FloatSqrt                      0      0.00%     80.96% # Class of executed instruction
system.cpu.op_class::SimdAdd                      516      0.03%     80.98% # Class of executed instruction
system.cpu.op_class::SimdAddAcc                     0      0.00%     80.98% # Class of executed instruction
system.cpu.op_class::SimdAlu                    16367      0.84%     81.82% # Class of executed instruction
system.cpu.op_class::SimdCmp                        0      0.00%     81.82% # Class of executed instruction
system.cpu.op_class::SimdCvt                    13762      0.70%     82.52% # Class of executed instruction
system.cpu.op_class::SimdMisc                   16166      0.83%     83.35% # Class of executed instruction
system.cpu.op_class::SimdMult                       0      0.00%     83.35% # Class of executed instruction
system.cpu.op_class::SimdMultAcc                    0      0.00%     83.35% # Class of executed instruction
system.cpu.op_class::SimdShift                    868      0.04%     83.39% # Class of executed instruction
system.cpu.op_class::SimdShiftAcc                   0      0.00%     83.39% # Class of executed instruction
system.cpu.op_class::SimdDiv                        0      0.00%     83.39% # Class of executed instruction
system.cpu.op_class::SimdSqrt                       0      0.00%     83.39% # Class of executed instruction
system.cpu.op_class::SimdFloatAdd                5070      0.26%     83.65% # Class of executed instruction
system.cpu.op_class::SimdFloatAlu                   0      0.00%     83.65% # Class of executed instruction
system.cpu.op_class::SimdFloatCmp                   0      0.00%     83.65% # Class of executed instruction
system.cpu.op_class::SimdFloatCvt                2028      0.10%     83.76% # Class of executed instruction
system.cpu.op_class::SimdFloatDiv                   0      0.00%     83.76% # Class of executed instruction
system.cpu.op_class::SimdFloatMisc                  0      0.00%     83.76% # Class of executed instruction
system.cpu.op_class::SimdFloatMult               3042      0.16%     83.91% # Class of executed instruction
system.cpu.op_class::SimdFloatMultAcc               0      0.00%     83.91% # Class of executed instruction
system.cpu.op_class::SimdFloatSqrt               1014      0.05%     83.97% # Class of executed instruction
system.cpu.op_class::SimdReduceAdd                  0      0.00%     83.97% # Class of executed instruction
system.cpu.op_class::SimdReduceAlu                  0      0.00%     83.97% # Class of executed instruction
system.cpu.op_class::SimdReduceCmp                  0      0.00%     83.97% # Class of executed instruction
system.cpu.op_class::SimdFloatReduceAdd             0      0.00%     83.97% # Class of executed instruction
system.cpu.op_class::SimdFloatReduceCmp             0      0.00%     83.97% # Class of executed instruction
system.cpu.op_class::SimdAes                        0      0.00%     83.97% # Class of executed instruction
system.cpu.op_class::SimdAesMix                     0      0.00%     83.97% # Class of executed instruction
system.cpu.op_class::SimdSha1Hash                   0      0.00%     83.97% # Class of executed instruction
system.cpu.op_class::SimdSha1Hash2                  0      0.00%     83.97% # Class of executed instruction
system.cpu.op_class::SimdSha256Hash                 0      0.00%     83.97% # Class of executed instruction
system.cpu.op_class::SimdSha256Hash2                0      0.00%     83.97% # Class of executed instruction
system.cpu.op_class::SimdShaSigma2                  0      0.00%     83.97% # Class of executed instruction
system.cpu.op_class::SimdShaSigma3                  0      0.00%     83.97% # Class of executed instruction
system.cpu.op_class::SimdPredAlu                    0      0.00%     83.97% # Class of executed instruction
system.cpu.op_class::MemRead                   160154      8.20%     92.16% # Class of executed instruction
system.cpu.op_class::MemWrite                  125821      6.44%     98.60% # Class of executed instruction
system.cpu.op_class::FloatMemRead               23523      1.20%     99.80% # Class of executed instruction
system.cpu.op_class::FloatMemWrite               3859      0.20%    100.00% # Class of executed instruction
system.cpu.op_class::IprAccess                      0      0.00%    100.00% # Class of executed instruction
system.cpu.op_class::InstPrefetch                   0      0.00%    100.00% # Class of executed instruction
system.cpu.op_class::total                    1954273                       # Class of executed instruction
system.cpu.workload.numSyscalls                    16                       # Number of system calls
system.dynamic_cache.flushTicks                     0                       # Ticks taken to flush
system.dynamic_cache.numFlushes                     0                       # Number of Flushes Taken
system.cache_small.blocked_cycles::no_mshrs            0                       # number of cycles access was blocked
system.cache_small.blocked_cycles::no_targets            0                       # number of cycles access was blocked
system.cache_small.blocked::no_mshrs                0                       # number of cycles access was blocked
system.cache_small.blocked::no_targets              0                       # number of cycles access was blocked
system.cache_small.avg_blocked_cycles::no_mshrs          nan                       # average number of cycles each access was blocked
system.cache_small.avg_blocked_cycles::no_targets          nan                       # average number of cycles each access was blocked
system.cache_small.replacements                     0                       # number of replacements
system.cache_small.power_state.pwrStateResidencyTicks::UNDEFINED   5052049000                       # Cumulative time (in ticks) in various power states
system.cache_small.tags.tagsinuse                   0                       # Cycle average of tags in use
system.cache_small.tags.total_refs                  0                       # Total number of references to valid blocks.
system.cache_small.tags.sampled_refs                0                       # Sample count of references to valid blocks.
system.cache_small.tags.avg_refs                  nan                       # Average number of references to valid blocks.
system.cache_small.tags.warmup_cycle                0                       # Cycle when the warmup percentage was hit.
system.cache_small.tags.tag_accesses                0                       # Number of tag accesses
system.cache_small.tags.data_accesses               0                       # Number of data accesses
system.cache_small.tags.power_state.pwrStateResidencyTicks::UNDEFINED   5052049000                       # Cumulative time (in ticks) in various power states
system.icache.demand_hits::.cpu.inst          1308341                       # number of demand (read+write) hits
system.icache.demand_hits::total              1308341                       # number of demand (read+write) hits
system.icache.overall_hits::.cpu.inst         1308341                       # number of overall hits
system.icache.overall_hits::total             1308341                       # number of overall hits
system.icache.demand_misses::.cpu.inst          23718                       # number of demand (read+write) misses
system.icache.demand_misses::total              23718                       # number of demand (read+write) misses
system.icache.overall_misses::.cpu.inst         23718                       # number of overall misses
system.icache.overall_misses::total             23718                       # number of overall misses
system.icache.demand_miss_latency::.cpu.inst   1349803000                       # number of demand (read+write) miss cycles
system.icache.demand_miss_latency::total   1349803000                       # number of demand (read+write) miss cycles
system.icache.overall_miss_latency::.cpu.inst   1349803000                       # number of overall miss cycles
system.icache.overall_miss_latency::total   1349803000                       # number of overall miss cycles
system.icache.demand_accesses::.cpu.inst      1332059                       # number of demand (read+write) accesses
system.icache.demand_accesses::total          1332059                       # number of demand (read+write) accesses
system.icache.overall_accesses::.cpu.inst      1332059                       # number of overall (read+write) accesses
system.icache.overall_accesses::total         1332059                       # number of overall (read+write) accesses
system.icache.demand_miss_rate::.cpu.inst     0.017806                       # miss rate for demand accesses
system.icache.demand_miss_rate::total        0.017806                       # miss rate for demand accesses
system.icache.overall_miss_rate::.cpu.inst     0.017806                       # miss rate for overall accesses
system.icache.overall_miss_rate::total       0.017806                       # miss rate for overall accesses
system.icache.demand_avg_miss_latency::.cpu.inst 56910.489923                       # average overall miss latency
system.icache.demand_avg_miss_latency::total 56910.489923                       # average overall miss latency
system.icache.overall_avg_miss_latency::.cpu.inst 56910.489923                       # average overall miss latency
system.icache.overall_avg_miss_latency::total 56910.489923                       # average overall miss latency
system.icache.blocked_cycles::no_mshrs              0                       # number of cycles access was blocked
system.icache.blocked_cycles::no_targets            0                       # number of cycles access was blocked
system.icache.blocked::no_mshrs                     0                       # number of cycles access was blocked
system.icache.blocked::no_targets                   0                       # number of cycles access was blocked
system.icache.avg_blocked_cycles::no_mshrs          nan                       # average number of cycles each access was blocked
system.icache.avg_blocked_cycles::no_targets          nan                       # average number of cycles each access was blocked
system.icache.demand_mshr_misses::.cpu.inst        23718                       # number of demand (read+write) MSHR misses
system.icache.demand_mshr_misses::total         23718                       # number of demand (read+write) MSHR misses
system.icache.overall_mshr_misses::.cpu.inst        23718                       # number of overall MSHR misses
system.icache.overall_mshr_misses::total        23718                       # number of overall MSHR misses
system.icache.demand_mshr_miss_latency::.cpu.inst   1302369000                       # number of demand (read+write) MSHR miss cycles
system.icache.demand_mshr_miss_latency::total   1302369000                       # number of demand (read+write) MSHR miss cycles
system.icache.overall_mshr_miss_latency::.cpu.inst   1302369000                       # number of overall MSHR miss cycles
system.icache.overall_mshr_miss_latency::total   1302369000                       # number of overall MSHR miss cycles
system.icache.demand_mshr_miss_rate::.cpu.inst     0.017806                       # mshr miss rate for demand accesses
system.icache.demand_mshr_miss_rate::total     0.017806                       # mshr miss rate for demand accesses
system.icache.overall_mshr_miss_rate::.cpu.inst     0.017806                       # mshr miss rate for overall accesses
system.icache.overall_mshr_miss_rate::total     0.017806                       # mshr miss rate for overall accesses
system.icache.demand_avg_mshr_miss_latency::.cpu.inst 54910.574247                       # average overall mshr miss latency
system.icache.demand_avg_mshr_miss_latency::total 54910.574247                       # average overall mshr miss latency
system.icache.overall_avg_mshr_miss_latency::.cpu.inst 54910.574247                       # average overall mshr miss latency
system.icache.overall_avg_mshr_miss_latency::total 54910.574247                       # average overall mshr miss latency
system.icache.replacements                      23466                       # number of replacements
system.icache.ReadReq_hits::.cpu.inst         1308341                       # number of ReadReq hits
system.icache.ReadReq_hits::total             1308341                       # number of ReadReq hits
system.icache.ReadReq_misses::.cpu.inst         23718                       # number of ReadReq misses
system.icache.ReadReq_misses::total             23718                       # number of ReadReq misses
system.icache.ReadReq_miss_latency::.cpu.inst   1349803000                       # number of ReadReq miss cycles
system.icache.ReadReq_miss_latency::total   1349803000                       # number of ReadReq miss cycles
system.icache.ReadReq_accesses::.cpu.inst      1332059                       # number of ReadReq accesses(hits+misses)
system.icache.ReadReq_accesses::total         1332059                       # number of ReadReq accesses(hits+misses)
system.icache.ReadReq_miss_rate::.cpu.inst     0.017806                       # miss rate for ReadReq accesses
system.icache.ReadReq_miss_rate::total       0.017806                       # miss rate for ReadReq accesses
system.icache.ReadReq_avg_miss_latency::.cpu.inst 56910.489923                       # average ReadReq miss latency
system.icache.ReadReq_avg_miss_latency::total 56910.489923                       # average ReadReq miss latency
system.icache.ReadReq_mshr_misses::.cpu.inst        23718                       # number of ReadReq MSHR misses
system.icache.ReadReq_mshr_misses::total        23718                       # number of ReadReq MSHR misses
system.icache.ReadReq_mshr_miss_latency::.cpu.inst   1302369000                       # number of ReadReq MSHR miss cycles
system.icache.ReadReq_mshr_miss_latency::total   1302369000                       # number of ReadReq MSHR miss cycles
system.icache.ReadReq_mshr_miss_rate::.cpu.inst     0.017806                       # mshr miss rate for ReadReq accesses
system.icache.ReadReq_mshr_miss_rate::total     0.017806                       # mshr miss rate for ReadReq accesses
system.icache.ReadReq_avg_mshr_miss_latency::.cpu.inst 54910.574247                       # average ReadReq mshr miss latency
system.icache.ReadReq_avg_mshr_miss_latency::total 54910.574247                       # average ReadReq mshr miss latency
system.icache.power_state.pwrStateResidencyTicks::UNDEFINED   5052049000                       # Cumulative time (in ticks) in various power states
system.icache.tags.tagsinuse               240.200037                       # Cycle average of tags in use
system.icache.tags.total_refs                  898966                       # Total number of references to valid blocks.
system.icache.tags.sampled_refs                 23466                       # Sample count of references to valid blocks.
system.icache.tags.avg_refs                 38.309299                       # Average number of references to valid blocks.
system.icache.tags.warmup_cycle                 80000                       # Cycle when the warmup percentage was hit.
system.icache.tags.occ_blocks::.cpu.inst   240.200037                       # Average occupied blocks per requestor
system.icache.tags.occ_percent::.cpu.inst     0.938281                       # Average percentage of cache occupancy
system.icache.tags.occ_percent::total        0.938281                       # Average percentage of cache occupancy
system.icache.tags.occ_task_id_blocks::1024          251                       # Occupied blocks per task id
system.icache.tags.age_task_id_blocks_1024::0           14                       # Occupied blocks per task id
system.icache.tags.age_task_id_blocks_1024::1           73                       # Occupied blocks per task id
system.icache.tags.age_task_id_blocks_1024::2            8                       # Occupied blocks per task id
system.icache.tags.age_task_id_blocks_1024::3          156                       # Occupied blocks per task id
system.icache.tags.occ_task_id_percent::1024     0.980469                       # Percentage of cache occupancy per task id
system.icache.tags.tag_accesses               1355776                       # Number of tag accesses
system.icache.tags.data_accesses              1355776                       # Number of data accesses
system.icache.tags.power_state.pwrStateResidencyTicks::UNDEFINED   5052049000                       # Cumulative time (in ticks) in various power states
system.membus.trans_dist::ReadReq               22516                       # Transaction distribution
system.membus.trans_dist::ReadResp              22516                       # Transaction distribution
system.membus.trans_dist::WritebackDirty         3833                       # Transaction distribution
system.membus.pkt_count_system.dynamic_cache.mem_side::system.mem_ctrl.port        48865                       # Packet count per connected master and slave (bytes)
system.membus.pkt_count_system.dynamic_cache.mem_side::total        48865                       # Packet count per connected master and slave (bytes)
system.membus.pkt_count::total                  48865                       # Packet count per connected master and slave (bytes)
system.membus.pkt_size_system.dynamic_cache.mem_side::system.mem_ctrl.port      1686336                       # Cumulative packet size per connected master and slave (bytes)
system.membus.pkt_size_system.dynamic_cache.mem_side::total      1686336                       # Cumulative packet size per connected master and slave (bytes)
system.membus.pkt_size::total                 1686336                       # Cumulative packet size per connected master and slave (bytes)
system.membus.reqLayer2.occupancy            41681000                       # Layer occupancy (ticks)
system.membus.reqLayer2.utilization               0.8                       # Layer utilization (%)
system.membus.respLayer0.occupancy          120031750                       # Layer occupancy (ticks)
system.membus.respLayer0.utilization              2.4                       # Layer utilization (%)
system.membus.power_state.pwrStateResidencyTicks::UNDEFINED   5052049000                       # Cumulative time (in ticks) in various power states
system.mem_ctrl.bytes_read::.cpu.inst         1093888                       # Number of bytes read from this memory
system.mem_ctrl.bytes_read::.cpu.data          347136                       # Number of bytes read from this memory
system.mem_ctrl.bytes_read::total             1441024                       # Number of bytes read from this memory
system.mem_ctrl.bytes_inst_read::.cpu.inst      1093888                       # Number of instructions bytes read from this memory
system.mem_ctrl.bytes_inst_read::total        1093888                       # Number of instructions bytes read from this memory
system.mem_ctrl.bytes_written::.writebacks       245312                       # Number of bytes written to this memory
system.mem_ctrl.bytes_written::total           245312                       # Number of bytes written to this memory
system.mem_ctrl.num_reads::.cpu.inst            17092                       # Number of read requests responded to by this memory
system.mem_ctrl.num_reads::.cpu.data             5424                       # Number of read requests responded to by this memory
system.mem_ctrl.num_reads::total                22516                       # Number of read requests responded to by this memory
system.mem_ctrl.num_writes::.writebacks          3833                       # Number of write requests responded to by this memory
system.mem_ctrl.num_writes::total                3833                       # Number of write requests responded to by this memory
system.mem_ctrl.bw_read::.cpu.inst          216523632                       # Total read bandwidth from this memory (bytes/s)
system.mem_ctrl.bw_read::.cpu.data           68711923                       # Total read bandwidth from this memory (bytes/s)
system.mem_ctrl.bw_read::total              285235555                       # Total read bandwidth from this memory (bytes/s)
system.mem_ctrl.bw_inst_read::.cpu.inst     216523632                       # Instruction read bandwidth from this memory (bytes/s)
system.mem_ctrl.bw_inst_read::total         216523632                       # Instruction read bandwidth from this memory (bytes/s)
system.mem_ctrl.bw_write::.writebacks        48556932                       # Write bandwidth from this memory (bytes/s)
system.mem_ctrl.bw_write::total              48556932                       # Write bandwidth from this memory (bytes/s)
system.mem_ctrl.bw_total::.writebacks        48556932                       # Total bandwidth to/from this memory (bytes/s)
system.mem_ctrl.bw_total::.cpu.inst         216523632                       # Total bandwidth to/from this memory (bytes/s)
system.mem_ctrl.bw_total::.cpu.data          68711923                       # Total bandwidth to/from this memory (bytes/s)
system.mem_ctrl.bw_total::total             333792487                       # Total bandwidth to/from this memory (bytes/s)
system.mem_ctrl.avgPriority_.writebacks::samples      3374.00                       # Average QoS priority value for accepted requests
system.mem_ctrl.avgPriority_.cpu.inst::samples     17092.00                       # Average QoS priority value for accepted requests
system.mem_ctrl.avgPriority_.cpu.data::samples      5121.00                       # Average QoS priority value for accepted requests
system.mem_ctrl.priorityMinLatency       0.000000018750                       # per QoS priority minimum request to response latency (s)
system.mem_ctrl.priorityMaxLatency       0.001527068500                       # per QoS priority maximum request to response latency (s)
system.mem_ctrl.numReadWriteTurnArounds           193                       # Number of turnarounds from READ to WRITE
system.mem_ctrl.numWriteReadTurnArounds           193                       # Number of turnarounds from WRITE to READ
system.mem_ctrl.numStayReadState                49457                       # Number of times bus staying in READ state
system.mem_ctrl.numStayWriteState                3160                       # Number of times bus staying in WRITE state
system.mem_ctrl.readReqs                        22516                       # Number of read requests accepted
system.mem_ctrl.writeReqs                        3833                       # Number of write requests accepted
system.mem_ctrl.readBursts                      22516                       # Number of DRAM read bursts, including those serviced by the write queue
system.mem_ctrl.writeBursts                      3833                       # Number of DRAM write bursts, including those merged in the write queue
system.mem_ctrl.servicedByWrQ                     303                       # Number of DRAM read bursts serviced by the write queue
system.mem_ctrl.mergedWrBursts                    459                       # Number of DRAM write bursts merged with an existing one
system.mem_ctrl.neitherReadNorWriteReqs             0                       # Number of requests that are neither read nor write
system.mem_ctrl.perBankRdBursts::0               1022                       # Per bank write bursts
system.mem_ctrl.perBankRdBursts::1                387                       # Per bank write bursts
system.mem_ctrl.perBankRdBursts::2                384                       # Per bank write bursts
system.mem_ctrl.perBankRdBursts::3               1421                       # Per bank write bursts
system.mem_ctrl.perBankRdBursts::4                405                       # Per bank write bursts
system.mem_ctrl.perBankRdBursts::5                463                       # Per bank write bursts
system.mem_ctrl.perBankRdBursts::6               1030                       # Per bank write bursts
system.mem_ctrl.perBankRdBursts::7               4398                       # Per bank write bursts
system.mem_ctrl.perBankRdBursts::8                296                       # Per bank write bursts
system.mem_ctrl.perBankRdBursts::9                665                       # Per bank write bursts
system.mem_ctrl.perBankRdBursts::10               154                       # Per bank write bursts
system.mem_ctrl.perBankRdBursts::11              6772                       # Per bank write bursts
system.mem_ctrl.perBankRdBursts::12               859                       # Per bank write bursts
system.mem_ctrl.perBankRdBursts::13               837                       # Per bank write bursts
system.mem_ctrl.perBankRdBursts::14              1159                       # Per bank write bursts
system.mem_ctrl.perBankRdBursts::15              1961                       # Per bank write bursts
system.mem_ctrl.perBankWrBursts::0                305                       # Per bank write bursts
system.mem_ctrl.perBankWrBursts::1                338                       # Per bank write bursts
system.mem_ctrl.perBankWrBursts::2                346                       # Per bank write bursts
system.mem_ctrl.perBankWrBursts::3                325                       # Per bank write bursts
system.mem_ctrl.perBankWrBursts::4                206                       # Per bank write bursts
system.mem_ctrl.perBankWrBursts::5                128                       # Per bank write bursts
system.mem_ctrl.perBankWrBursts::6                151                       # Per bank write bursts
system.mem_ctrl.perBankWrBursts::7                138                       # Per bank write bursts
system.mem_ctrl.perBankWrBursts::8                150                       # Per bank write bursts
system.mem_ctrl.perBankWrBursts::9                107                       # Per bank write bursts
system.mem_ctrl.perBankWrBursts::10               106                       # Per bank write bursts
system.mem_ctrl.perBankWrBursts::11               105                       # Per bank write bursts
system.mem_ctrl.perBankWrBursts::12               188                       # Per bank write bursts
system.mem_ctrl.perBankWrBursts::13               199                       # Per bank write bursts
system.mem_ctrl.perBankWrBursts::14               337                       # Per bank write bursts
system.mem_ctrl.perBankWrBursts::15               223                       # Per bank write bursts
system.mem_ctrl.avgRdQLen                        1.00                       # Average read queue length when enqueuing
system.mem_ctrl.avgWrQLen                       24.56                       # Average write queue length when enqueuing
system.mem_ctrl.totQLat                     186212500                       # Total ticks spent queuing
system.mem_ctrl.totBusLat                   111065000                       # Total ticks spent in databus transfers
system.mem_ctrl.totMemAccLat                602706250                       # Total ticks spent from burst creation until serviced by the DRAM
system.mem_ctrl.avgQLat                       8383.04                       # Average queueing delay per DRAM burst
system.mem_ctrl.avgBusLat                     5000.00                       # Average bus latency per DRAM burst
system.mem_ctrl.avgMemAccLat                 27133.04                       # Average memory access latency per DRAM burst
system.mem_ctrl.numRdRetry                          0                       # Number of times read queue was full causing retry
system.mem_ctrl.numWrRetry                          0                       # Number of times write queue was full causing retry
system.mem_ctrl.readRowHits                     16220                       # Number of row buffer hits during reads
system.mem_ctrl.writeRowHits                     2831                       # Number of row buffer hits during writes
system.mem_ctrl.readRowHitRate                  73.02                       # Row buffer hit rate for reads
system.mem_ctrl.writeRowHitRate                 83.91                       # Row buffer hit rate for writes
system.mem_ctrl.readPktSize::0                      0                       # Read request sizes (log2)
system.mem_ctrl.readPktSize::1                      0                       # Read request sizes (log2)
system.mem_ctrl.readPktSize::2                      0                       # Read request sizes (log2)
system.mem_ctrl.readPktSize::3                      0                       # Read request sizes (log2)
system.mem_ctrl.readPktSize::4                      0                       # Read request sizes (log2)
system.mem_ctrl.readPktSize::5                      0                       # Read request sizes (log2)
system.mem_ctrl.readPktSize::6                  22516                       # Read request sizes (log2)
system.mem_ctrl.writePktSize::0                     0                       # Write request sizes (log2)
system.mem_ctrl.writePktSize::1                     0                       # Write request sizes (log2)
system.mem_ctrl.writePktSize::2                     0                       # Write request sizes (log2)
system.mem_ctrl.writePktSize::3                     0                       # Write request sizes (log2)
system.mem_ctrl.writePktSize::4                     0                       # Write request sizes (log2)
system.mem_ctrl.writePktSize::5                     0                       # Write request sizes (log2)
system.mem_ctrl.writePktSize::6                  3833                       # Write request sizes (log2)
system.mem_ctrl.rdQLenPdf::0                    22213                       # What read queue length does an incoming req see
system.mem_ctrl.rdQLenPdf::1                        0                       # What read queue length does an incoming req see
system.mem_ctrl.rdQLenPdf::2                        0                       # What read queue length does an incoming req see
system.mem_ctrl.rdQLenPdf::3                        0                       # What read queue length does an incoming req see
system.mem_ctrl.rdQLenPdf::4                        0                       # What read queue length does an incoming req see
system.mem_ctrl.rdQLenPdf::5                        0                       # What read queue length does an incoming req see
system.mem_ctrl.rdQLenPdf::6                        0                       # What read queue length does an incoming req see
system.mem_ctrl.rdQLenPdf::7                        0                       # What read queue length does an incoming req see
system.mem_ctrl.rdQLenPdf::8                        0                       # What read queue length does an incoming req see
system.mem_ctrl.rdQLenPdf::9                        0                       # What read queue length does an incoming req see
system.mem_ctrl.rdQLenPdf::10                       0                       # What read queue length does an incoming req see
system.mem_ctrl.rdQLenPdf::11                       0                       # What read queue length does an incoming req see
system.mem_ctrl.rdQLenPdf::12                       0                       # What read queue length does an incoming req see
system.mem_ctrl.rdQLenPdf::13                       0                       # What read queue length does an incoming req see
system.mem_ctrl.rdQLenPdf::14                       0                       # What read queue length does an incoming req see
system.mem_ctrl.rdQLenPdf::15                       0                       # What read queue length does an incoming req see
system.mem_ctrl.rdQLenPdf::16                       0                       # What read queue length does an incoming req see
system.mem_ctrl.rdQLenPdf::17                       0                       # What read queue length does an incoming req see
system.mem_ctrl.rdQLenPdf::18                       0                       # What read queue length does an incoming req see
system.mem_ctrl.rdQLenPdf::19                       0                       # What read queue length does an incoming req see
system.mem_ctrl.rdQLenPdf::20                       0                       # What read queue length does an incoming req see
system.mem_ctrl.rdQLenPdf::21                       0                       # What read queue length does an incoming req see
system.mem_ctrl.rdQLenPdf::22                       0                       # What read queue length does an incoming req see
system.mem_ctrl.rdQLenPdf::23                       0                       # What read queue length does an incoming req see
system.mem_ctrl.rdQLenPdf::24                       0                       # What read queue length does an incoming req see
system.mem_ctrl.rdQLenPdf::25                       0                       # What read queue length does an incoming req see
system.mem_ctrl.rdQLenPdf::26                       0                       # What read queue length does an incoming req see
system.mem_ctrl.rdQLenPdf::27                       0                       # What read queue length does an incoming req see
system.mem_ctrl.rdQLenPdf::28                       0                       # What read queue length does an incoming req see
system.mem_ctrl.rdQLenPdf::29                       0                       # What read queue length does an incoming req see
system.mem_ctrl.rdQLenPdf::30                       0                       # What read queue length does an incoming req see
system.mem_ctrl.rdQLenPdf::31                       0                       # What read queue length does an incoming req see
system.mem_ctrl.wrQLenPdf::0                        1                       # What write queue length does an incoming req see
system.mem_ctrl.wrQLenPdf::1                        1                       # What write queue length does an incoming req see
system.mem_ctrl.wrQLenPdf::2                        1                       # What write queue length does an incoming req see
system.mem_ctrl.wrQLenPdf::3                        1                       # What write queue length does an incoming req see
system.mem_ctrl.wrQLenPdf::4                        1                       # What write queue length does an incoming req see
system.mem_ctrl.wrQLenPdf::5                        1                       # What write queue length does an incoming req see
system.mem_ctrl.wrQLenPdf::6                        1                       # What write queue length does an incoming req see
system.mem_ctrl.wrQLenPdf::7                        1                       # What write queue length does an incoming req see
system.mem_ctrl.wrQLenPdf::8                        1                       # What write queue length does an incoming req see
system.mem_ctrl.wrQLenPdf::9                        1                       # What write queue length does an incoming req see
system.mem_ctrl.wrQLenPdf::10                       1                       # What write queue length does an incoming req see
system.mem_ctrl.wrQLenPdf::11                       1                       # What write queue length does an incoming req see
system.mem_ctrl.wrQLenPdf::12                       1                       # What write queue length does an incoming req see
system.mem_ctrl.wrQLenPdf::13                       1                       # What write queue length does an incoming req see
system.mem_ctrl.wrQLenPdf::14                       1                       # What write queue length does an incoming req see
system.mem_ctrl.wrQLenPdf::15                     123                       # What write queue length does an incoming req see
system.mem_ctrl.wrQLenPdf::16                     126                       # What write queue length does an incoming req see
system.mem_ctrl.wrQLenPdf::17                     188                       # What write queue length does an incoming req see
system.mem_ctrl.wrQLenPdf::18                     195                       # What write queue length does an incoming req see
system.mem_ctrl.wrQLenPdf::19                     194                       # What write queue length does an incoming req see
system.mem_ctrl.wrQLenPdf::20                     195                       # What write queue length does an incoming req see
system.mem_ctrl.wrQLenPdf::21                     194                       # What write queue length does an incoming req see
system.mem_ctrl.wrQLenPdf::22                     193                       # What write queue length does an incoming req see
system.mem_ctrl.wrQLenPdf::23                     193                       # What write queue length does an incoming req see
system.mem_ctrl.wrQLenPdf::24                     201                       # What write queue length does an incoming req see
system.mem_ctrl.wrQLenPdf::25                     194                       # What write queue length does an incoming req see
system.mem_ctrl.wrQLenPdf::26                     195                       # What write queue length does an incoming req see
system.mem_ctrl.wrQLenPdf::27                     202                       # What write queue length does an incoming req see
system.mem_ctrl.wrQLenPdf::28                     193                       # What write queue length does an incoming req see
system.mem_ctrl.wrQLenPdf::29                     193                       # What write queue length does an incoming req see
system.mem_ctrl.wrQLenPdf::30                     193                       # What write queue length does an incoming req see
system.mem_ctrl.wrQLenPdf::31                     193                       # What write queue length does an incoming req see
system.mem_ctrl.wrQLenPdf::32                     193                       # What write queue length does an incoming req see
system.mem_ctrl.wrQLenPdf::33                       1                       # What write queue length does an incoming req see
system.mem_ctrl.wrQLenPdf::34                       0                       # What write queue length does an incoming req see
system.mem_ctrl.wrQLenPdf::35                       0                       # What write queue length does an incoming req see
system.mem_ctrl.wrQLenPdf::36                       0                       # What write queue length does an incoming req see
system.mem_ctrl.wrQLenPdf::37                       0                       # What write queue length does an incoming req see
system.mem_ctrl.wrQLenPdf::38                       0                       # What write queue length does an incoming req see
system.mem_ctrl.wrQLenPdf::39                       0                       # What write queue length does an incoming req see
system.mem_ctrl.wrQLenPdf::40                       0                       # What write queue length does an incoming req see
system.mem_ctrl.wrQLenPdf::41                       0                       # What write queue length does an incoming req see
system.mem_ctrl.wrQLenPdf::42                       0                       # What write queue length does an incoming req see
system.mem_ctrl.wrQLenPdf::43                       0                       # What write queue length does an incoming req see
system.mem_ctrl.wrQLenPdf::44                       0                       # What write queue length does an incoming req see
system.mem_ctrl.wrQLenPdf::45                       0                       # What write queue length does an incoming req see
system.mem_ctrl.wrQLenPdf::46                       0                       # What write queue length does an incoming req see
system.mem_ctrl.wrQLenPdf::47                       0                       # What write queue length does an incoming req see
system.mem_ctrl.wrQLenPdf::48                       0                       # What write queue length does an incoming req see
system.mem_ctrl.wrQLenPdf::49                       0                       # What write queue length does an incoming req see
system.mem_ctrl.wrQLenPdf::50                       0                       # What write queue length does an incoming req see
system.mem_ctrl.wrQLenPdf::51                       0                       # What write queue length does an incoming req see
system.mem_ctrl.wrQLenPdf::52                       0                       # What write queue length does an incoming req see
system.mem_ctrl.wrQLenPdf::53                       0                       # What write queue length does an incoming req see
system.mem_ctrl.wrQLenPdf::54                       0                       # What write queue length does an incoming req see
system.mem_ctrl.wrQLenPdf::55                       0                       # What write queue length does an incoming req see
system.mem_ctrl.wrQLenPdf::56                       0                       # What write queue length does an incoming req see
system.mem_ctrl.wrQLenPdf::57                       0                       # What write queue length does an incoming req see
system.mem_ctrl.wrQLenPdf::58                       0                       # What write queue length does an incoming req see
system.mem_ctrl.wrQLenPdf::59                       0                       # What write queue length does an incoming req see
system.mem_ctrl.wrQLenPdf::60                       0                       # What write queue length does an incoming req see
system.mem_ctrl.wrQLenPdf::61                       0                       # What write queue length does an incoming req see
system.mem_ctrl.wrQLenPdf::62                       0                       # What write queue length does an incoming req see
system.mem_ctrl.wrQLenPdf::63                       0                       # What write queue length does an incoming req see
system.mem_ctrl.bytesPerActivate::samples         6507                       # Bytes accessed per row activation
system.mem_ctrl.bytesPerActivate::mean     251.328108                       # Bytes accessed per row activation
system.mem_ctrl.bytesPerActivate::gmean    165.027664                       # Bytes accessed per row activation
system.mem_ctrl.bytesPerActivate::stdev    267.299742                       # Bytes accessed per row activation
system.mem_ctrl.bytesPerActivate::0-127          2063     31.70%     31.70% # Bytes accessed per row activation
system.mem_ctrl.bytesPerActivate::128-255         2288     35.16%     66.87% # Bytes accessed per row activation
system.mem_ctrl.bytesPerActivate::256-383          839     12.89%     79.76% # Bytes accessed per row activation
system.mem_ctrl.bytesPerActivate::384-511          405      6.22%     85.98% # Bytes accessed per row activation
system.mem_ctrl.bytesPerActivate::512-639          114      1.75%     87.74% # Bytes accessed per row activation
system.mem_ctrl.bytesPerActivate::640-767          200      3.07%     90.81% # Bytes accessed per row activation
system.mem_ctrl.bytesPerActivate::768-895          101      1.55%     92.36% # Bytes accessed per row activation
system.mem_ctrl.bytesPerActivate::896-1023          110      1.69%     94.05% # Bytes accessed per row activation
system.mem_ctrl.bytesPerActivate::1024-1151          387      5.95%    100.00% # Bytes accessed per row activation
system.mem_ctrl.bytesPerActivate::total          6507                       # Bytes accessed per row activation
system.mem_ctrl.rdPerTurnAround::samples          193                       # Reads before turning the bus around for writes
system.mem_ctrl.rdPerTurnAround::mean      114.782383                       # Reads before turning the bus around for writes
system.mem_ctrl.rdPerTurnAround::gmean      29.594707                       # Reads before turning the bus around for writes
system.mem_ctrl.rdPerTurnAround::stdev     319.233089                       # Reads before turning the bus around for writes
system.mem_ctrl.rdPerTurnAround::0-63             160     82.90%     82.90% # Reads before turning the bus around for writes
system.mem_ctrl.rdPerTurnAround::64-127            13      6.74%     89.64% # Reads before turning the bus around for writes
system.mem_ctrl.rdPerTurnAround::128-191            2      1.04%     90.67% # Reads before turning the bus around for writes
system.mem_ctrl.rdPerTurnAround::192-255            2      1.04%     91.71% # Reads before turning the bus around for writes
system.mem_ctrl.rdPerTurnAround::384-447            1      0.52%     92.23% # Reads before turning the bus around for writes
system.mem_ctrl.rdPerTurnAround::512-575            3      1.55%     93.78% # Reads before turning the bus around for writes
system.mem_ctrl.rdPerTurnAround::704-767            2      1.04%     94.82% # Reads before turning the bus around for writes
system.mem_ctrl.rdPerTurnAround::832-895            2      1.04%     95.85% # Reads before turning the bus around for writes
system.mem_ctrl.rdPerTurnAround::896-959            1      0.52%     96.37% # Reads before turning the bus around for writes
system.mem_ctrl.rdPerTurnAround::1024-1087            1      0.52%     96.89% # Reads before turning the bus around for writes
system.mem_ctrl.rdPerTurnAround::1088-1151            1      0.52%     97.41% # Reads before turning the bus around for writes
system.mem_ctrl.rdPerTurnAround::1344-1407            1      0.52%     97.93% # Reads before turning the bus around for writes
system.mem_ctrl.rdPerTurnAround::1408-1471            1      0.52%     98.45% # Reads before turning the bus around for writes
system.mem_ctrl.rdPerTurnAround::1856-1919            3      1.55%    100.00% # Reads before turning the bus around for writes
system.mem_ctrl.rdPerTurnAround::total            193                       # Reads before turning the bus around for writes
system.mem_ctrl.wrPerTurnAround::samples          193                       # Writes before turning the bus around for reads
system.mem_ctrl.wrPerTurnAround::mean       17.367876                       # Writes before turning the bus around for reads
system.mem_ctrl.wrPerTurnAround::gmean      17.334249                       # Writes before turning the bus around for reads
system.mem_ctrl.wrPerTurnAround::stdev       1.077422                       # Writes before turning the bus around for reads
system.mem_ctrl.wrPerTurnAround::16                69     35.75%     35.75% # Writes before turning the bus around for reads
system.mem_ctrl.wrPerTurnAround::17                 2      1.04%     36.79% # Writes before turning the bus around for reads
system.mem_ctrl.wrPerTurnAround::18               106     54.92%     91.71% # Writes before turning the bus around for reads
system.mem_ctrl.wrPerTurnAround::19                14      7.25%     98.96% # Writes before turning the bus around for reads
system.mem_ctrl.wrPerTurnAround::20                 2      1.04%    100.00% # Writes before turning the bus around for reads
system.mem_ctrl.wrPerTurnAround::total            193                       # Writes before turning the bus around for reads
system.mem_ctrl.bytesReadDRAM                 1421632                       # Total number of bytes read from DRAM
system.mem_ctrl.bytesReadWrQ                    19392                       # Total number of bytes read from write queue
system.mem_ctrl.bytesWritten                   214528                       # Total number of bytes written to DRAM
system.mem_ctrl.bytesReadSys                  1441024                       # Total read bytes from the system interface side
system.mem_ctrl.bytesWrittenSys                245312                       # Total written bytes from the system interface side
system.mem_ctrl.avgRdBW                        281.40                       # Average DRAM read bandwidth in MiByte/s
system.mem_ctrl.avgWrBW                         42.46                       # Average achieved write bandwidth in MiByte/s
system.mem_ctrl.avgRdBWSys                     285.24                       # Average system read bandwidth in MiByte/s
system.mem_ctrl.avgWrBWSys                      48.56                       # Average system write bandwidth in MiByte/s
system.mem_ctrl.peakBW                       12800.00                       # Theoretical peak bandwidth in MiByte/s
system.mem_ctrl.busUtil                          2.53                       # Data bus utilization in percentage
system.mem_ctrl.busUtilRead                      2.20                       # Data bus utilization in percentage for reads
system.mem_ctrl.busUtilWrite                     0.33                       # Data bus utilization in percentage for writes
system.mem_ctrl.totGap                     5051845000                       # Total gap between requests
system.mem_ctrl.avgGap                      191728.15                       # Average gap between requests
system.mem_ctrl.masterReadBytes::.cpu.inst      1093888                       # Per-master bytes read from memory
system.mem_ctrl.masterReadBytes::.cpu.data       327744                       # Per-master bytes read from memory
system.mem_ctrl.masterWriteBytes::.writebacks       214528                       # Per-master bytes write to memory
system.mem_ctrl.masterReadRate::.cpu.inst 216523632.292560875416                       # Per-master bytes read from memory rate (Bytes/sec)
system.mem_ctrl.masterReadRate::.cpu.data 64873480.047402545810                       # Per-master bytes read from memory rate (Bytes/sec)
system.mem_ctrl.masterWriteRate::.writebacks 42463562.803923711181                       # Per-master bytes write to memory rate (Bytes/sec)
system.mem_ctrl.masterReadAccesses::.cpu.inst        17092                       # Per-master read serviced memory accesses
system.mem_ctrl.masterReadAccesses::.cpu.data         5424                       # Per-master read serviced memory accesses
system.mem_ctrl.masterWriteAccesses::.writebacks         3833                       # Per-master write serviced memory accesses
system.mem_ctrl.masterReadTotalLat::.cpu.inst    458479500                       # Per-master read total memory access latency
system.mem_ctrl.masterReadTotalLat::.cpu.data    144226750                       # Per-master read total memory access latency
system.mem_ctrl.masterWriteTotalLat::.writebacks 115303022250                       # Per-master write total memory access latency
system.mem_ctrl.masterReadAvgLat::.cpu.inst     26824.22                       # Per-master read average memory access latency
system.mem_ctrl.masterReadAvgLat::.cpu.data     26590.48                       # Per-master read average memory access latency
system.mem_ctrl.masterWriteAvgLat::.writebacks  30081665.08                       # Per-master write average memory access latency
system.mem_ctrl.pageHitRate                     74.46                       # Row buffer hit rate, read and write combined
system.mem_ctrl.rank1.actEnergy              27938820                       # Energy for activate commands per rank (pJ)
system.mem_ctrl.rank1.preEnergy              14827065                       # Energy for precharge commands per rank (pJ)
system.mem_ctrl.rank1.readEnergy             90699420                       # Energy for read commands per rank (pJ)
system.mem_ctrl.rank1.writeEnergy             7386300                       # Energy for write commands per rank (pJ)
system.mem_ctrl.rank1.refreshEnergy      398286720.000000                       # Energy for refresh commands per rank (pJ)
system.mem_ctrl.rank1.actBackEnergy        1952963640                       # Energy for active background per rank (pJ)
system.mem_ctrl.rank1.preBackEnergy         295386240                       # Energy for precharge background per rank (pJ)
system.mem_ctrl.rank1.actPowerDownEnergy            0                       # Energy for active power-down per rank (pJ)
system.mem_ctrl.rank1.prePowerDownEnergy            0                       # Energy for precharge power-down per rank (pJ)
system.mem_ctrl.rank1.selfRefreshEnergy             0                       # Energy for self refresh per rank (pJ)
system.mem_ctrl.rank1.totalEnergy          2787488205                       # Total energy per rank (pJ)
system.mem_ctrl.rank1.averagePower         551.753992                       # Core power per rank (mW)
system.mem_ctrl.rank1.totalIdleTime                 0                       # Total Idle time Per DRAM Rank
system.mem_ctrl.rank1.memoryStateTime::IDLE    750691000                       # Time in different power states
system.mem_ctrl.rank1.memoryStateTime::REF    168480000                       # Time in different power states
system.mem_ctrl.rank1.memoryStateTime::SREF            0                       # Time in different power states
system.mem_ctrl.rank1.memoryStateTime::PRE_PDN            0                       # Time in different power states
system.mem_ctrl.rank1.memoryStateTime::ACT   4132878000                       # Time in different power states
system.mem_ctrl.rank1.memoryStateTime::ACT_PDN            0                       # Time in different power states
system.mem_ctrl.rank0.actEnergy              18571140                       # Energy for activate commands per rank (pJ)
system.mem_ctrl.rank0.preEnergy               9867000                       # Energy for precharge commands per rank (pJ)
system.mem_ctrl.rank0.readEnergy             67901400                       # Energy for read commands per rank (pJ)
system.mem_ctrl.rank0.writeEnergy            10111140                       # Energy for write commands per rank (pJ)
system.mem_ctrl.rank0.refreshEnergy      398286720.000000                       # Energy for refresh commands per rank (pJ)
system.mem_ctrl.rank0.actBackEnergy        1977634380                       # Energy for active background per rank (pJ)
system.mem_ctrl.rank0.preBackEnergy         274610880                       # Energy for precharge background per rank (pJ)
system.mem_ctrl.rank0.actPowerDownEnergy            0                       # Energy for active power-down per rank (pJ)
system.mem_ctrl.rank0.prePowerDownEnergy            0                       # Energy for precharge power-down per rank (pJ)
system.mem_ctrl.rank0.selfRefreshEnergy             0                       # Energy for self refresh per rank (pJ)
system.mem_ctrl.rank0.totalEnergy          2756982660                       # Total energy per rank (pJ)
system.mem_ctrl.rank0.averagePower         545.715740                       # Core power per rank (mW)
system.mem_ctrl.rank0.totalIdleTime                 0                       # Total Idle time Per DRAM Rank
system.mem_ctrl.rank0.memoryStateTime::IDLE    696460500                       # Time in different power states
system.mem_ctrl.rank0.memoryStateTime::REF    168480000                       # Time in different power states
system.mem_ctrl.rank0.memoryStateTime::SREF            0                       # Time in different power states
system.mem_ctrl.rank0.memoryStateTime::PRE_PDN            0                       # Time in different power states
system.mem_ctrl.rank0.memoryStateTime::ACT   4187108500                       # Time in different power states
system.mem_ctrl.rank0.memoryStateTime::ACT_PDN            0                       # Time in different power states
system.mem_ctrl.power_state.pwrStateResidencyTicks::UNDEFINED   5052049000                       # Cumulative time (in ticks) in various power states
system.cache_medium.blocked_cycles::no_mshrs            0                       # number of cycles access was blocked
system.cache_medium.blocked_cycles::no_targets            0                       # number of cycles access was blocked
system.cache_medium.blocked::no_mshrs               0                       # number of cycles access was blocked
system.cache_medium.blocked::no_targets             0                       # number of cycles access was blocked
system.cache_medium.avg_blocked_cycles::no_mshrs          nan                       # average number of cycles each access was blocked
system.cache_medium.avg_blocked_cycles::no_targets          nan                       # average number of cycles each access was blocked
system.cache_medium.replacements                    0                       # number of replacements
system.cache_medium.power_state.pwrStateResidencyTicks::UNDEFINED   5052049000                       # Cumulative time (in ticks) in various power states
system.cache_medium.tags.tagsinuse                  0                       # Cycle average of tags in use
system.cache_medium.tags.total_refs                 0                       # Total number of references to valid blocks.
system.cache_medium.tags.sampled_refs               0                       # Sample count of references to valid blocks.
system.cache_medium.tags.avg_refs                 nan                       # Average number of references to valid blocks.
system.cache_medium.tags.warmup_cycle               0                       # Cycle when the warmup percentage was hit.
system.cache_medium.tags.tag_accesses               0                       # Number of tag accesses
system.cache_medium.tags.data_accesses              0                       # Number of data accesses
system.cache_medium.tags.power_state.pwrStateResidencyTicks::UNDEFINED   5052049000                       # Cumulative time (in ticks) in various power states
system.clk_domain.clock                          1000                       # Clock period in ticks
system.clk_domain.voltage_domain.voltage            1                       # Voltage in Volts
system.dcache.demand_hits::.cpu.data           307176                       # number of demand (read+write) hits
system.dcache.demand_hits::total               307176                       # number of demand (read+write) hits
system.dcache.overall_hits::.cpu.data          307180                       # number of overall hits
system.dcache.overall_hits::total              307180                       # number of overall hits
system.dcache.demand_misses::.cpu.data           6339                       # number of demand (read+write) misses
system.dcache.demand_misses::total               6339                       # number of demand (read+write) misses
system.dcache.overall_misses::.cpu.data          6415                       # number of overall misses
system.dcache.overall_misses::total              6415                       # number of overall misses
system.dcache.demand_miss_latency::.cpu.data    401988000                       # number of demand (read+write) miss cycles
system.dcache.demand_miss_latency::total    401988000                       # number of demand (read+write) miss cycles
system.dcache.overall_miss_latency::.cpu.data    407404000                       # number of overall miss cycles
system.dcache.overall_miss_latency::total    407404000                       # number of overall miss cycles
system.dcache.demand_accesses::.cpu.data       313515                       # number of demand (read+write) accesses
system.dcache.demand_accesses::total           313515                       # number of demand (read+write) accesses
system.dcache.overall_accesses::.cpu.data       313595                       # number of overall (read+write) accesses
system.dcache.overall_accesses::total          313595                       # number of overall (read+write) accesses
system.dcache.demand_miss_rate::.cpu.data     0.020219                       # miss rate for demand accesses
system.dcache.demand_miss_rate::total        0.020219                       # miss rate for demand accesses
system.dcache.overall_miss_rate::.cpu.data     0.020456                       # miss rate for overall accesses
system.dcache.overall_miss_rate::total       0.020456                       # miss rate for overall accesses
system.dcache.demand_avg_miss_latency::.cpu.data 63415.049692                       # average overall miss latency
system.dcache.demand_avg_miss_latency::total 63415.049692                       # average overall miss latency
system.dcache.overall_avg_miss_latency::.cpu.data 63508.028059                       # average overall miss latency
system.dcache.overall_avg_miss_latency::total 63508.028059                       # average overall miss latency
system.dcache.blocked_cycles::no_mshrs              0                       # number of cycles access was blocked
system.dcache.blocked_cycles::no_targets            0                       # number of cycles access was blocked
system.dcache.blocked::no_mshrs                     0                       # number of cycles access was blocked
system.dcache.blocked::no_targets                   0                       # number of cycles access was blocked
system.dcache.avg_blocked_cycles::no_mshrs          nan                       # average number of cycles each access was blocked
system.dcache.avg_blocked_cycles::no_targets          nan                       # average number of cycles each access was blocked
system.dcache.writebacks::.writebacks            4220                       # number of writebacks
system.dcache.writebacks::total                  4220                       # number of writebacks
system.dcache.demand_mshr_misses::.cpu.data         6339                       # number of demand (read+write) MSHR misses
system.dcache.demand_mshr_misses::total          6339                       # number of demand (read+write) MSHR misses
system.dcache.overall_mshr_misses::.cpu.data         6415                       # number of overall MSHR misses
system.dcache.overall_mshr_misses::total         6415                       # number of overall MSHR misses
system.dcache.demand_mshr_miss_latency::.cpu.data    389310000                       # number of demand (read+write) MSHR miss cycles
system.dcache.demand_mshr_miss_latency::total    389310000                       # number of demand (read+write) MSHR miss cycles
system.dcache.overall_mshr_miss_latency::.cpu.data    394574000                       # number of overall MSHR miss cycles
system.dcache.overall_mshr_miss_latency::total    394574000                       # number of overall MSHR miss cycles
system.dcache.demand_mshr_miss_rate::.cpu.data     0.020219                       # mshr miss rate for demand accesses
system.dcache.demand_mshr_miss_rate::total     0.020219                       # mshr miss rate for demand accesses
system.dcache.overall_mshr_miss_rate::.cpu.data     0.020456                       # mshr miss rate for overall accesses
system.dcache.overall_mshr_miss_rate::total     0.020456                       # mshr miss rate for overall accesses
system.dcache.demand_avg_mshr_miss_latency::.cpu.data 61415.049692                       # average overall mshr miss latency
system.dcache.demand_avg_mshr_miss_latency::total 61415.049692                       # average overall mshr miss latency
system.dcache.overall_avg_mshr_miss_latency::.cpu.data 61508.028059                       # average overall mshr miss latency
system.dcache.overall_avg_mshr_miss_latency::total 61508.028059                       # average overall mshr miss latency
system.dcache.replacements                       6159                       # number of replacements
system.dcache.ReadReq_hits::.cpu.data          181244                       # number of ReadReq hits
system.dcache.ReadReq_hits::total              181244                       # number of ReadReq hits
system.dcache.ReadReq_misses::.cpu.data          2386                       # number of ReadReq misses
system.dcache.ReadReq_misses::total              2386                       # number of ReadReq misses
system.dcache.ReadReq_miss_latency::.cpu.data    142564000                       # number of ReadReq miss cycles
system.dcache.ReadReq_miss_latency::total    142564000                       # number of ReadReq miss cycles
system.dcache.ReadReq_accesses::.cpu.data       183630                       # number of ReadReq accesses(hits+misses)
system.dcache.ReadReq_accesses::total          183630                       # number of ReadReq accesses(hits+misses)
system.dcache.ReadReq_miss_rate::.cpu.data     0.012994                       # miss rate for ReadReq accesses
system.dcache.ReadReq_miss_rate::total       0.012994                       # miss rate for ReadReq accesses
system.dcache.ReadReq_avg_miss_latency::.cpu.data 59750.209556                       # average ReadReq miss latency
system.dcache.ReadReq_avg_miss_latency::total 59750.209556                       # average ReadReq miss latency
system.dcache.ReadReq_mshr_misses::.cpu.data         2386                       # number of ReadReq MSHR misses
system.dcache.ReadReq_mshr_misses::total         2386                       # number of ReadReq MSHR misses
system.dcache.ReadReq_mshr_miss_latency::.cpu.data    137792000                       # number of ReadReq MSHR miss cycles
system.dcache.ReadReq_mshr_miss_latency::total    137792000                       # number of ReadReq MSHR miss cycles
system.dcache.ReadReq_mshr_miss_rate::.cpu.data     0.012994                       # mshr miss rate for ReadReq accesses
system.dcache.ReadReq_mshr_miss_rate::total     0.012994                       # mshr miss rate for ReadReq accesses
system.dcache.ReadReq_avg_mshr_miss_latency::.cpu.data 57750.209556                       # average ReadReq mshr miss latency
system.dcache.ReadReq_avg_mshr_miss_latency::total 57750.209556                       # average ReadReq mshr miss latency
system.dcache.WriteReq_hits::.cpu.data         125932                       # number of WriteReq hits
system.dcache.WriteReq_hits::total             125932                       # number of WriteReq hits
system.dcache.WriteReq_misses::.cpu.data         3953                       # number of WriteReq misses
system.dcache.WriteReq_misses::total             3953                       # number of WriteReq misses
system.dcache.WriteReq_miss_latency::.cpu.data    259424000                       # number of WriteReq miss cycles
system.dcache.WriteReq_miss_latency::total    259424000                       # number of WriteReq miss cycles
system.dcache.WriteReq_accesses::.cpu.data       129885                       # number of WriteReq accesses(hits+misses)
system.dcache.WriteReq_accesses::total         129885                       # number of WriteReq accesses(hits+misses)
system.dcache.WriteReq_miss_rate::.cpu.data     0.030435                       # miss rate for WriteReq accesses
system.dcache.WriteReq_miss_rate::total      0.030435                       # miss rate for WriteReq accesses
system.dcache.WriteReq_avg_miss_latency::.cpu.data 65627.118644                       # average WriteReq miss latency
system.dcache.WriteReq_avg_miss_latency::total 65627.118644                       # average WriteReq miss latency
system.dcache.WriteReq_mshr_misses::.cpu.data         3953                       # number of WriteReq MSHR misses
system.dcache.WriteReq_mshr_misses::total         3953                       # number of WriteReq MSHR misses
system.dcache.WriteReq_mshr_miss_latency::.cpu.data    251518000                       # number of WriteReq MSHR miss cycles
system.dcache.WriteReq_mshr_miss_latency::total    251518000                       # number of WriteReq MSHR miss cycles
system.dcache.WriteReq_mshr_miss_rate::.cpu.data     0.030435                       # mshr miss rate for WriteReq accesses
system.dcache.WriteReq_mshr_miss_rate::total     0.030435                       # mshr miss rate for WriteReq accesses
system.dcache.WriteReq_avg_mshr_miss_latency::.cpu.data 63627.118644                       # average WriteReq mshr miss latency
system.dcache.WriteReq_avg_mshr_miss_latency::total 63627.118644                       # average WriteReq mshr miss latency
system.dcache.SoftPFReq_hits::.cpu.data             4                       # number of SoftPFReq hits
system.dcache.SoftPFReq_hits::total                 4                       # number of SoftPFReq hits
system.dcache.SoftPFReq_misses::.cpu.data           76                       # number of SoftPFReq misses
system.dcache.SoftPFReq_misses::total              76                       # number of SoftPFReq misses
system.dcache.SoftPFReq_miss_latency::.cpu.data      5416000                       # number of SoftPFReq miss cycles
system.dcache.SoftPFReq_miss_latency::total      5416000                       # number of SoftPFReq miss cycles
system.dcache.SoftPFReq_accesses::.cpu.data           80                       # number of SoftPFReq accesses(hits+misses)
system.dcache.SoftPFReq_accesses::total            80                       # number of SoftPFReq accesses(hits+misses)
system.dcache.SoftPFReq_miss_rate::.cpu.data     0.950000                       # miss rate for SoftPFReq accesses
system.dcache.SoftPFReq_miss_rate::total     0.950000                       # miss rate for SoftPFReq accesses
system.dcache.SoftPFReq_avg_miss_latency::.cpu.data 71263.157895                       # average SoftPFReq miss latency
system.dcache.SoftPFReq_avg_miss_latency::total 71263.157895                       # average SoftPFReq miss latency
system.dcache.SoftPFReq_mshr_misses::.cpu.data           76                       # number of SoftPFReq MSHR misses
system.dcache.SoftPFReq_mshr_misses::total           76                       # number of SoftPFReq MSHR misses
system.dcache.SoftPFReq_mshr_miss_latency::.cpu.data      5264000                       # number of SoftPFReq MSHR miss cycles
system.dcache.SoftPFReq_mshr_miss_latency::total      5264000                       # number of SoftPFReq MSHR miss cycles
system.dcache.SoftPFReq_mshr_miss_rate::.cpu.data     0.950000                       # mshr miss rate for SoftPFReq accesses
system.dcache.SoftPFReq_mshr_miss_rate::total     0.950000                       # mshr miss rate for SoftPFReq accesses
system.dcache.SoftPFReq_avg_mshr_miss_latency::.cpu.data 69263.157895                       # average SoftPFReq mshr miss latency
system.dcache.SoftPFReq_avg_mshr_miss_latency::total 69263.157895                       # average SoftPFReq mshr miss latency
system.dcache.power_state.pwrStateResidencyTicks::UNDEFINED   5052049000                       # Cumulative time (in ticks) in various power states
system.dcache.tags.tagsinuse               252.806535                       # Cycle average of tags in use
system.dcache.tags.total_refs                  229351                       # Total number of references to valid blocks.
system.dcache.tags.sampled_refs                  6159                       # Sample count of references to valid blocks.
system.dcache.tags.avg_refs                 37.238350                       # Average number of references to valid blocks.
system.dcache.tags.warmup_cycle                167000                       # Cycle when the warmup percentage was hit.
system.dcache.tags.occ_blocks::.cpu.data   252.806535                       # Average occupied blocks per requestor
system.dcache.tags.occ_percent::.cpu.data     0.987526                       # Average percentage of cache occupancy
system.dcache.tags.occ_percent::total        0.987526                       # Average percentage of cache occupancy
system.dcache.tags.occ_task_id_blocks::1024          256                       # Occupied blocks per task id
system.dcache.tags.age_task_id_blocks_1024::0           22                       # Occupied blocks per task id
system.dcache.tags.age_task_id_blocks_1024::1           42                       # Occupied blocks per task id
system.dcache.tags.age_task_id_blocks_1024::2          122                       # Occupied blocks per task id
system.dcache.tags.age_task_id_blocks_1024::3           70                       # Occupied blocks per task id
system.dcache.tags.occ_task_id_percent::1024            1                       # Percentage of cache occupancy per task id
system.dcache.tags.tag_accesses                320010                       # Number of tag accesses
system.dcache.tags.data_accesses               320010                       # Number of data accesses
system.dcache.tags.power_state.pwrStateResidencyTicks::UNDEFINED   5052049000                       # Cumulative time (in ticks) in various power states
system.cache_large.blocked_cycles::no_mshrs            0                       # number of cycles access was blocked
system.cache_large.blocked_cycles::no_targets            0                       # number of cycles access was blocked
system.cache_large.blocked::no_mshrs                0                       # number of cycles access was blocked
system.cache_large.blocked::no_targets              0                       # number of cycles access was blocked
system.cache_large.avg_blocked_cycles::no_mshrs          nan                       # average number of cycles each access was blocked
system.cache_large.avg_blocked_cycles::no_targets          nan                       # average number of cycles each access was blocked
system.cache_large.replacements                     0                       # number of replacements
[...]
system.dcache.tags.age_task_id_blocks_1024::2          110                       # Occupied blocks per task id
system.dcache.tags.age_task_id_blocks_1024::3           80                       # Occupied blocks per task id
system.dcache.tags.occ_task_id_percent::1024            1                       # Percentage of cache occupancy per task id
system.dcache.tags.tag_accesses               2224605                       # Number of tag accesses
system.dcache.tags.data_accesses              2224605                       # Number of data accesses
system.dcache.tags.power_state.pwrStateResidencyTicks::UNDEFINED  31066128000                       # Cumulative time (in ticks) in various power states
system.cache_large.blocked_cycles::no_mshrs            0                       # number of cycles access was blocked
system.cache_large.blocked_cycles::no_targets            0                       # number of cycles access was blocked
system.cache_large.blocked::no_mshrs                0                       # number of cycles access was blocked
system.cache_large.blocked::no_targets              0                       # number of cycles access was blocked
system.cache_large.avg_blocked_cycles::no_mshrs          nan                       # average number of cycles each access was blocked
system.cache_large.avg_blocked_cycles::no_targets          nan                       # average number of cycles each access was blocked
system.cache_large.replacements                     0                       # number of replacements
system.cache_large.power_state.pwrStateResidencyTicks::UNDEFINED  31066128000                       # Cumulative time (in ticks) in various power states
system.cache_large.tags.tagsinuse                   0                       # Cycle average of tags in use
system.cache_large.tags.total_refs                  0                       # Total number of references to valid blocks.
system.cache_large.tags.sampled_refs                0                       # Sample count of references to valid blocks.
system.cache_large.tags.avg_refs                  nan                       # Average number of references to valid blocks.
system.cache_large.tags.warmup_cycle                0                       # Cycle when the warmup percentage was hit.
system.cache_large.tags.tag_accesses                0                       # Number of tag accesses
system.cache_large.tags.data_accesses               0                       # Number of data accesses
system.cache_large.tags.power_state.pwrStateResidencyTicks::UNDEFINED  31066128000                       # Cumulative time (in ticks) in various power states
system.l2cache.demand_hits::.cpu.inst           56685                       # number of demand (read+write) hits
system.l2cache.demand_hits::.cpu.data            7747                       # number of demand (read+write) hits
system.l2cache.demand_hits::total               64432                       # number of demand (read+write) hits
system.l2cache.overall_hits::.cpu.inst          56685                       # number of overall hits
system.l2cache.overall_hits::.cpu.data           7747                       # number of overall hits
system.l2cache.overall_hits::total              64432                       # number of overall hits
system.l2cache.demand_misses::.cpu.inst        141764                       # number of demand (read+write) misses
system.l2cache.demand_misses::.cpu.data         23680                       # number of demand (read+write) misses
system.l2cache.demand_misses::total            165444                       # number of demand (read+write) misses
system.l2cache.overall_misses::.cpu.inst       141764                       # number of overall misses
system.l2cache.overall_misses::.cpu.data        23680                       # number of overall misses
system.l2cache.overall_misses::total           165444                       # number of overall misses
system.l2cache.demand_miss_latency::.cpu.inst   5036511000                       # number of demand (read+write) miss cycles
system.l2cache.demand_miss_latency::.cpu.data   1067282000                       # number of demand (read+write) miss cycles
system.l2cache.demand_miss_latency::total   6103793000                       # number of demand (read+write) miss cycles
system.l2cache.overall_miss_latency::.cpu.inst   5036511000                       # number of overall miss cycles
system.l2cache.overall_miss_latency::.cpu.data   1067282000                       # number of overall miss cycles
system.l2cache.overall_miss_latency::total   6103793000                       # number of overall miss cycles
system.l2cache.demand_accesses::.cpu.inst       198449                       # number of demand (read+write) accesses
system.l2cache.demand_accesses::.cpu.data        31427                       # number of demand (read+write) accesses
system.l2cache.demand_accesses::total          229876                       # number of demand (read+write) accesses
system.l2cache.overall_accesses::.cpu.inst       198449                       # number of overall (read+write) accesses
system.l2cache.overall_accesses::.cpu.data        31427                       # number of overall (read+write) accesses
system.l2cache.overall_accesses::total         229876                       # number of overall (read+write) accesses
system.l2cache.demand_miss_rate::.cpu.inst     0.714360                       # miss rate for demand accesses
system.l2cache.demand_miss_rate::.cpu.data     0.753492                       # miss rate for demand accesses
system.l2cache.demand_miss_rate::total       0.719710                       # miss rate for demand accesses
system.l2cache.overall_miss_rate::.cpu.inst     0.714360                       # miss rate for overall accesses
system.l2cache.overall_miss_rate::.cpu.data     0.753492                       # miss rate for overall accesses
system.l2cache.overall_miss_rate::total      0.719710                       # miss rate for overall accesses
system.l2cache.demand_avg_miss_latency::.cpu.inst 35527.432917                       # average overall miss latency
system.l2cache.demand_avg_miss_latency::.cpu.data 45071.030405                       # average overall miss latency
system.l2cache.demand_avg_miss_latency::total 36893.408041                       # average overall miss latency
system.l2cache.overall_avg_miss_latency::.cpu.inst 35527.432917                       # average overall miss latency
system.l2cache.overall_avg_miss_latency::.cpu.data 45071.030405                       # average overall miss latency
system.l2cache.overall_avg_miss_latency::total 36893.408041                       # average overall miss latency
system.l2cache.blocked_cycles::no_mshrs             0                       # number of cycles access was blocked
system.l2cache.blocked_cycles::no_targets            0                       # number of cycles access was blocked
system.l2cache.blocked::no_mshrs                    0                       # number of cycles access was blocked
system.l2cache.blocked::no_targets                  0                       # number of cycles access was blocked
system.l2cache.avg_blocked_cycles::no_mshrs          nan                       # average number of cycles each access was blocked
system.l2cache.avg_blocked_cycles::no_targets          nan                       # average number of cycles each access was blocked
system.l2cache.writebacks::.writebacks          12920                       # number of writebacks
system.l2cache.writebacks::total                12920                       # number of writebacks
system.l2cache.demand_mshr_misses::.cpu.inst       141764                       # number of demand (read+write) MSHR misses
system.l2cache.demand_mshr_misses::.cpu.data        23680                       # number of demand (read+write) MSHR misses
system.l2cache.demand_mshr_misses::total       165444                       # number of demand (read+write) MSHR misses
system.l2cache.overall_mshr_misses::.cpu.inst       141764                       # number of overall MSHR misses
system.l2cache.overall_mshr_misses::.cpu.data        23680                       # number of overall MSHR misses
system.l2cache.overall_mshr_misses::total       165444                       # number of overall MSHR misses
system.l2cache.demand_mshr_miss_latency::.cpu.inst   4752983000                       # number of demand (read+write) MSHR miss cycles
system.l2cache.demand_mshr_miss_latency::.cpu.data   1019922000                       # number of demand (read+write) MSHR miss cycles
system.l2cache.demand_mshr_miss_latency::total   5772905000                       # number of demand (read+write) MSHR miss cycles
system.l2cache.overall_mshr_miss_latency::.cpu.inst   4752983000                       # number of overall MSHR miss cycles
system.l2cache.overall_mshr_miss_latency::.cpu.data   1019922000                       # number of overall MSHR miss cycles
system.l2cache.overall_mshr_miss_latency::total   5772905000                       # number of overall MSHR miss cycles
system.l2cache.demand_mshr_miss_rate::.cpu.inst     0.714360                       # mshr miss rate for demand accesses
system.l2cache.demand_mshr_miss_rate::.cpu.data     0.753492                       # mshr miss rate for demand accesses
system.l2cache.demand_mshr_miss_rate::total     0.719710                       # mshr miss rate for demand accesses
system.l2cache.overall_mshr_miss_rate::.cpu.inst     0.714360                       # mshr miss rate for overall accesses
system.l2cache.overall_mshr_miss_rate::.cpu.data     0.753492                       # mshr miss rate for overall accesses
system.l2cache.overall_mshr_miss_rate::total     0.719710                       # mshr miss rate for overall accesses
system.l2cache.demand_avg_mshr_miss_latency::.cpu.inst 33527.432917                       # average overall mshr miss latency
system.l2cache.demand_avg_mshr_miss_latency::.cpu.data 43071.030405                       # average overall mshr miss latency
system.l2cache.demand_avg_mshr_miss_latency::total 34893.408041                       # average overall mshr miss latency
system.l2cache.overall_avg_mshr_miss_latency::.cpu.inst 33527.432917                       # average overall mshr miss latency
system.l2cache.overall_avg_mshr_miss_latency::.cpu.data 43071.030405                       # average overall mshr miss latency
system.l2cache.overall_avg_mshr_miss_latency::total 34893.408041                       # average overall mshr miss latency
system.l2cache.replacements                    174309                       # number of replacements
system.l2cache.ReadReq_hits::.cpu.inst          56685                       # number of ReadReq hits
system.l2cache.ReadReq_hits::.cpu.data           7747                       # number of ReadReq hits
system.l2cache.ReadReq_hits::total              64432                       # number of ReadReq hits
system.l2cache.ReadReq_misses::.cpu.inst       141764                       # number of ReadReq misses
system.l2cache.ReadReq_misses::.cpu.data        23680                       # number of ReadReq misses
system.l2cache.ReadReq_misses::total           165444                       # number of ReadReq misses
system.l2cache.ReadReq_miss_latency::.cpu.inst   5036511000                       # number of ReadReq miss cycles
system.l2cache.ReadReq_miss_latency::.cpu.data   1067282000                       # number of ReadReq miss cycles
system.l2cache.ReadReq_miss_latency::total   6103793000                       # number of ReadReq miss cycles
system.l2cache.ReadReq_accesses::.cpu.inst       198449                       # number of ReadReq accesses(hits+misses)
system.l2cache.ReadReq_accesses::.cpu.data        31427                       # number of ReadReq accesses(hits+misses)
system.l2cache.ReadReq_accesses::total         229876                       # number of ReadReq accesses(hits+misses)
system.l2cache.ReadReq_miss_rate::.cpu.inst     0.714360                       # miss rate for ReadReq accesses
system.l2cache.ReadReq_miss_rate::.cpu.data     0.753492                       # miss rate for ReadReq accesses
system.l2cache.ReadReq_miss_rate::total      0.719710                       # miss rate for ReadReq accesses
system.l2cache.ReadReq_avg_miss_latency::.cpu.inst 35527.432917                       # average ReadReq miss latency
system.l2cache.ReadReq_avg_miss_latency::.cpu.data 45071.030405                       # average ReadReq miss latency
system.l2cache.ReadReq_avg_miss_latency::total 36893.408041                       # average ReadReq miss latency
system.l2cache.ReadReq_mshr_misses::.cpu.inst       141764                       # number of ReadReq MSHR misses
system.l2cache.ReadReq_mshr_misses::.cpu.data        23680                       # number of ReadReq MSHR misses
system.l2cache.ReadReq_mshr_misses::total       165444                       # number of ReadReq MSHR misses
system.l2cache.ReadReq_mshr_miss_latency::.cpu.inst   4752983000                       # number of ReadReq MSHR miss cycles
system.l2cache.ReadReq_mshr_miss_latency::.cpu.data   1019922000                       # number of ReadReq MSHR miss cycles
system.l2cache.ReadReq_mshr_miss_latency::total   5772905000                       # number of ReadReq MSHR miss cycles
system.l2cache.ReadReq_mshr_miss_rate::.cpu.inst     0.714360                       # mshr miss rate for ReadReq accesses
system.l2cache.ReadReq_mshr_miss_rate::.cpu.data     0.753492                       # mshr miss rate for ReadReq accesses
system.l2cache.ReadReq_mshr_miss_rate::total     0.719710                       # mshr miss rate for ReadReq accesses
system.l2cache.ReadReq_avg_mshr_miss_latency::.cpu.inst 33527.432917                       # average ReadReq mshr miss latency
system.l2cache.ReadReq_avg_mshr_miss_latency::.cpu.data 43071.030405                       # average ReadReq mshr miss latency
system.l2cache.ReadReq_avg_mshr_miss_latency::total 34893.408041                       # average ReadReq mshr miss latency
system.l2cache.WritebackDirty_hits::.writebacks        13915                       # number of WritebackDirty hits
system.l2cache.WritebackDirty_hits::total        13915                       # number of WritebackDirty hits
system.l2cache.WritebackDirty_accesses::.writebacks        13915                       # number of WritebackDirty accesses(hits+misses)
system.l2cache.WritebackDirty_accesses::total        13915                       # number of WritebackDirty accesses(hits+misses)
system.l2cache.power_state.pwrStateResidencyTicks::UNDEFINED  31066128000                       # Cumulative time (in ticks) in various power states
system.l2cache.tags.tagsinuse              510.922482                       # Cycle average of tags in use
system.l2cache.tags.total_refs                 243791                       # Total number of references to valid blocks.
system.l2cache.tags.sampled_refs               174821                       # Sample count of references to valid blocks.
system.l2cache.tags.avg_refs                 1.394518                       # Average number of references to valid blocks.
system.l2cache.tags.warmup_cycle                76000                       # Cycle when the warmup percentage was hit.
system.l2cache.tags.occ_blocks::.writebacks   114.020049                       # Average occupied blocks per requestor
system.l2cache.tags.occ_blocks::.cpu.inst   167.505550                       # Average occupied blocks per requestor
system.l2cache.tags.occ_blocks::.cpu.data   229.396883                       # Average occupied blocks per requestor
system.l2cache.tags.occ_percent::.writebacks     0.222695                       # Average percentage of cache occupancy
system.l2cache.tags.occ_percent::.cpu.inst     0.327159                       # Average percentage of cache occupancy
system.l2cache.tags.occ_percent::.cpu.data     0.448041                       # Average percentage of cache occupancy
system.l2cache.tags.occ_percent::total       0.997895                       # Average percentage of cache occupancy
system.l2cache.tags.occ_task_id_blocks::1024          512                       # Occupied blocks per task id
system.l2cache.tags.age_task_id_blocks_1024::0           55                       # Occupied blocks per task id
system.l2cache.tags.age_task_id_blocks_1024::1           67                       # Occupied blocks per task id
system.l2cache.tags.age_task_id_blocks_1024::2          161                       # Occupied blocks per task id
system.l2cache.tags.age_task_id_blocks_1024::3          229                       # Occupied blocks per task id
system.l2cache.tags.occ_task_id_percent::1024            1                       # Percentage of cache occupancy per task id
system.l2cache.tags.tag_accesses               418612                       # Number of tag accesses
system.l2cache.tags.data_accesses              418612                       # Number of data accesses
system.l2cache.tags.power_state.pwrStateResidencyTicks::UNDEFINED  31066128000                       # Cumulative time (in ticks) in various power states
system.l2bar.trans_dist::ReadReq               229876                       # Transaction distribution
system.l2bar.trans_dist::ReadResp              229876                       # Transaction distribution
system.l2bar.trans_dist::WritebackDirty         13915                       # Transaction distribution
system.l2bar.pkt_count_system.dcache.mem_side::system.l2cache.cpu_side        76769                       # Packet count per connected master and slave (bytes)
system.l2bar.pkt_count_system.icache.mem_side::system.l2cache.cpu_side       396898                       # Packet count per connected master and slave (bytes)
system.l2bar.pkt_count::total                  473667                       # Packet count per connected master and slave (bytes)
system.l2bar.pkt_size_system.dcache.mem_side::system.l2cache.cpu_side      2901888                       # Cumulative packet size per connected master and slave (bytes)
system.l2bar.pkt_size_system.icache.mem_side::system.l2cache.cpu_side     12700736                       # Cumulative packet size per connected master and slave (bytes)
system.l2bar.pkt_size::total                 15602624                       # Cumulative packet size per connected master and slave (bytes)
system.l2bar.respLayer1.occupancy           992245000                       # Layer occupancy (ticks)
system.l2bar.respLayer1.utilization               3.2                       # Layer utilization (%)
system.l2bar.reqLayer0.occupancy            299451000                       # Layer occupancy (ticks)
system.l2bar.reqLayer0.utilization                1.0                       # Layer utilization (%)
system.l2bar.respLayer0.occupancy           157135000                       # Layer occupancy (ticks)
system.l2bar.respLayer0.utilization               0.5                       # Layer utilization (%)
system.l2bar.power_state.pwrStateResidencyTicks::UNDEFINED  31066128000                       # Cumulative time (in ticks) in various power states
system.cpu.dtb.walker.power_state.pwrStateResidencyTicks::UNDEFINED  31066128000                       # Cumulative time (in ticks) in various power states
system.cpu.interrupts.clk_domain.clock          16000                       # Clock period in ticks
system.cpu.itb.walker.power_state.pwrStateResidencyTicks::UNDEFINED  31066128000                       # Cumulative time (in ticks) in various power states
system.cpu.power_state.numTransitions               1                       # Number of power state transitions
system.cpu.power_state.pwrStateResidencyTicks::ON  31066128000                       # Cumulative time (in ticks) in various power states

---------- End Simulation Statistics   ----------
