
---------- Begin Simulation Statistics ----------
final_tick                               282939295000                       # Number of ticks from beginning of simulation (restored from checkpoints and never reset)
host_inst_rate                                 160933                       # Simulator instruction rate (inst/s)
host_mem_usage                                 682876                       # Number of bytes of host memory used
host_op_rate                                   189750                       # Simulator op (including micro ops) rate (op/s)
host_seconds                                    18.64                       # Real time elapsed on the host
host_tick_rate                            15177936658                       # Simulator tick rate (ticks/s)
sim_freq                                 1000000000000                       # Frequency of simulated ticks
sim_insts                                     3000000                       # Number of instructions simulated
sim_ops                                       3537218                       # Number of ops (including micro ops) simulated
sim_seconds                                  0.282939                       # Number of seconds simulated
sim_ticks                                282939295000                       # Number of ticks simulated
system.cachebus.snoop_filter.hit_multi_requests            0                       # Number of requests hitting in the snoop filter with multiple (>1) holders of the requested data.
system.cachebus.snoop_filter.hit_multi_snoops            0                       # Number of snoops hitting in the snoop filter with multiple (>1) holders of the requested data.
system.cachebus.snoop_filter.hit_single_requests            0                       # Number of requests hitting in the snoop filter with a single holder of the requested data.
system.cachebus.snoop_filter.hit_single_snoops            0                       # Number of snoops hitting in the snoop filter with a single holder of the requested data.
system.cachebus.snoop_filter.tot_requests            0                       # Total number of requests made to the snoop filter.
system.cachebus.snoop_filter.tot_snoops             0                       # Total number of snoops made to the snoop filter.
system.cpu.Branches                            134242                       # Number of branches fetched
system.cpu.committedInsts                     3000000                       # Number of instructions committed
system.cpu.committedOps                       3537218                       # Number of ops (including micro ops) committed
system.cpu.dtb.rdAccesses                        4335                       # TLB accesses on read requests
system.cpu.dtb.rdMisses                            16                       # TLB misses on read requests
system.cpu.dtb.wrAccesses                     2600586                       # TLB accesses on write requests
system.cpu.dtb.wrMisses                         10141                       # TLB misses on write requests
system.cpu.idle_fraction                            0                       # Percentage of idle cycles
system.cpu.itb.rdAccesses                           0                       # TLB accesses on read requests
system.cpu.itb.rdMisses                             0                       # TLB misses on read requests
system.cpu.itb.wrAccesses                     4700894                       # TLB accesses on write requests
system.cpu.itb.wrMisses                            47                       # TLB misses on write requests
system.cpu.not_idle_fraction                        1                       # Percentage of non-idle cycles
system.cpu.numCycles                        282939295                       # number of cpu cycles simulated
system.cpu.numWorkItemsCompleted                    0                       # number of work items this cpu completed
system.cpu.numWorkItemsStarted                      0                       # number of work items this cpu started
system.cpu.num_busy_cycles                  282939295                       # Number of busy cycles
system.cpu.num_cc_register_reads               670691                       # number of times the CC registers were read
system.cpu.num_cc_register_writes              529638                       # number of times the CC registers were written
system.cpu.num_conditional_control_insts       133243                       # number of instructions that are conditional controls
system.cpu.num_fp_alu_accesses                2463814                       # Number of float alu accesses
system.cpu.num_fp_insts                       2463814                       # number of float instructions
system.cpu.num_fp_register_reads              2464325                       # number of times the floating registers were read
system.cpu.num_fp_register_writes                 609                       # number of times the floating registers were written
system.cpu.num_func_calls                         651                       # number of times a function call or return occured
system.cpu.num_idle_cycles                          0                       # Number of idle cycles
system.cpu.num_int_alu_accesses               3541567                       # Number of integer alu accesses
system.cpu.num_int_insts                      3541567                       # number of integer instructions
system.cpu.num_int_register_reads             9035523                       # number of times the integer registers were read
system.cpu.num_int_register_writes             806926                       # number of times the integer registers were written
system.cpu.num_load_insts                        4320                       # Number of load instructions
system.cpu.num_mem_refs                       2604906                       # number of memory refs
system.cpu.num_store_insts                    2600586                       # Number of store instructions
system.cpu.num_vec_alu_accesses                     0                       # Number of vector alu accesses
system.cpu.num_vec_insts                            0                       # number of vector instructions
system.cpu.num_vec_register_reads                   0                       # number of times the vector registers were read
system.cpu.num_vec_register_writes                  0                       # number of times the vector registers were written
system.cpu.op_class::No_OpClass                   186      0.01%      0.01% # Class of executed instruction
system.cpu.op_class::IntAlu                    936543     26.44%     26.44% # Class of executed instruction
system.cpu.op_class::IntMult                       29      0.00%     26.45% # Class of executed instruction
system.cpu.op_class::IntDiv                        70      0.00%     26.45% # Class of executed instruction
system.cpu.op_class::FloatAdd                      19      0.00%     26.45% # Class of executed instruction
system.cpu.op_class::FloatCmp                       0      0.00%     26.45% # Class of executed instruction
system.cpu.op_class::FloatCvt                       0      0.00%     26.45% # Class of executed instruction
system.cpu.op_class::FloatMult                      0      0.00%     26.45% # Class of executed instruction
system.cpu.op_class::FloatMultAcc                   0      0.00%     26.45% # Class of executed instruction
system.cpu.op_class::FloatDiv                       0      0.00%     26.45% # Class of executed instruction
system.cpu.op_class::FloatMisc                      0      0.00%     26.45% # Class of executed instruction
system.cpu.op_class::FloatSqrt                      0      0.00%     26.45% # Class of executed instruction
system.cpu.op_class::SimdAdd                        0      0.00%     26.45% # Class of executed instruction
system.cpu.op_class::SimdAddAcc                     0      0.00%     26.45% # Class of executed instruction
system.cpu.op_class::SimdAlu                      152      0.00%     26.45% # Class of executed instruction
system.cpu.op_class::SimdCmp                        0      0.00%     26.45% # Class of executed instruction
system.cpu.op_class::SimdCvt                      158      0.00%     26.46% # Class of executed instruction
system.cpu.op_class::SimdMisc                     221      0.01%     26.46% # Class of executed instruction
system.cpu.op_class::SimdMult                       0      0.00%     26.46% # Class of executed instruction
system.cpu.op_class::SimdMultAcc                    0      0.00%     26.46% # Class of executed instruction
system.cpu.op_class::SimdShift                      0      0.00%     26.46% # Class of executed instruction
system.cpu.op_class::SimdShiftAcc                   0      0.00%     26.46% # Class of executed instruction
system.cpu.op_class::SimdDiv                        0      0.00%     26.46% # Class of executed instruction
system.cpu.op_class::SimdSqrt                       0      0.00%     26.46% # Class of executed instruction
system.cpu.op_class::SimdFloatAdd                   0      0.00%     26.46% # Class of executed instruction
system.cpu.op_class::SimdFloatAlu                   0      0.00%     26.46% # Class of executed instruction
system.cpu.op_class::SimdFloatCmp                   0      0.00%     26.46% # Class of executed instruction
system.cpu.op_class::SimdFloatCvt                   2      0.00%     26.46% # Class of executed instruction
system.cpu.op_class::SimdFloatDiv                   0      0.00%     26.46% # Class of executed instruction
system.cpu.op_class::SimdFloatMisc                  0      0.00%     26.46% # Class of executed instruction
system.cpu.op_class::SimdFloatMult                  0      0.00%     26.46% # Class of executed instruction
system.cpu.op_class::SimdFloatMultAcc               0      0.00%     26.46% # Class of executed instruction
system.cpu.op_class::SimdFloatSqrt                  0      0.00%     26.46% # Class of executed instruction
system.cpu.op_class::SimdReduceAdd                  0      0.00%     26.46% # Class of executed instruction
system.cpu.op_class::SimdReduceAlu                  0      0.00%     26.46% # Class of executed instruction
system.cpu.op_class::SimdReduceCmp                  0      0.00%     26.46% # Class of executed instruction
system.cpu.op_class::SimdFloatReduceAdd             0      0.00%     26.46% # Class of executed instruction
system.cpu.op_class::SimdFloatReduceCmp             0      0.00%     26.46% # Class of executed instruction
system.cpu.op_class::SimdAes                        0      0.00%     26.46% # Class of executed instruction
system.cpu.op_class::SimdAesMix                     0      0.00%     26.46% # Class of executed instruction
system.cpu.op_class::SimdSha1Hash                   0      0.00%     26.46% # Class of executed instruction
system.cpu.op_class::SimdSha1Hash2                  0      0.00%     26.46% # Class of executed instruction
system.cpu.op_class::SimdSha256Hash                 0      0.00%     26.46% # Class of executed instruction
system.cpu.op_class::SimdSha256Hash2                0      0.00%     26.46% # Class of executed instruction
system.cpu.op_class::SimdShaSigma2                  0      0.00%     26.46% # Class of executed instruction
system.cpu.op_class::SimdShaSigma3                  0      0.00%     26.46% # Class of executed instruction
system.cpu.op_class::SimdPredAlu                    0      0.00%     26.46% # Class of executed instruction
system.cpu.op_class::MemRead                     4218      0.12%     26.58% # Class of executed instruction
system.cpu.op_class::MemWrite                  137492      3.88%     30.46% # Class of executed instruction
system.cpu.op_class::FloatMemRead                 102      0.00%     30.47% # Class of executed instruction
system.cpu.op_class::FloatMemWrite            2463094     69.53%    100.00% # Class of executed instruction
system.cpu.op_class::IprAccess                      0      0.00%    100.00% # Class of executed instruction
system.cpu.op_class::InstPrefetch                   0      0.00%    100.00% # Class of executed instruction
system.cpu.op_class::total                    3542286                       # Class of executed instruction
system.cpu.workload.numSyscalls                    19                       # Number of system calls
system.membus.snoop_filter.hit_multi_requests            0                       # Number of requests hitting in the snoop filter with multiple (>1) holders of the requested data.
system.membus.snoop_filter.hit_multi_snoops            0                       # Number of snoops hitting in the snoop filter with multiple (>1) holders of the requested data.
system.membus.snoop_filter.hit_single_requests       193931                       # Number of requests hitting in the snoop filter with a single holder of the requested data.
system.membus.snoop_filter.hit_single_snoops            0                       # Number of snoops hitting in the snoop filter with a single holder of the requested data.
system.membus.snoop_filter.tot_requests        420630                       # Total number of requests made to the snoop filter.
system.membus.snoop_filter.tot_snoops               0                       # Total number of snoops made to the snoop filter.
system.membus.trans_dist::ReadReq             4705229                       # Transaction distribution
system.membus.trans_dist::ReadResp            4705228                       # Transaction distribution
system.membus.trans_dist::WriteReq             781947                       # Transaction distribution
system.membus.trans_dist::WriteResp            781947                       # Transaction distribution
system.membus.trans_dist::WritebackDirty       193931                       # Transaction distribution
system.membus.trans_dist::ReadExReq            226699                       # Transaction distribution
system.membus.trans_dist::ReadExResp           226699                       # Transaction distribution
system.membus.pkt_count_system.cpu.icache_port::system.mem_ctrl.port      9401787                       # Packet count per connected master and slave (bytes)
system.membus.pkt_count_system.cpu.icache_port::total      9401787                       # Packet count per connected master and slave (bytes)
system.membus.pkt_count_system.memobj.mem_side::system.mem_ctrl.port      1572564                       # Packet count per connected master and slave (bytes)
system.membus.pkt_count_system.memobj.mem_side::total      1572564                       # Packet count per connected master and slave (bytes)
system.membus.pkt_count_system.cache.mem_side::system.mem_ctrl.port       647329                       # Packet count per connected master and slave (bytes)
system.membus.pkt_count_system.cache.mem_side::total       647329                       # Packet count per connected master and slave (bytes)
system.membus.pkt_count::total               11621680                       # Packet count per connected master and slave (bytes)
system.membus.pkt_size_system.cpu.icache_port::system.mem_ctrl.port     37607144                       # Cumulative packet size per connected master and slave (bytes)
system.membus.pkt_size_system.cpu.icache_port::total     37607144                       # Cumulative packet size per connected master and slave (bytes)
system.membus.pkt_size_system.memobj.mem_side::system.mem_ctrl.port      6124063                       # Cumulative packet size per connected master and slave (bytes)
system.membus.pkt_size_system.memobj.mem_side::total      6124063                       # Cumulative packet size per connected master and slave (bytes)
system.membus.pkt_size_system.cache.mem_side::system.mem_ctrl.port     26920320                       # Cumulative packet size per connected master and slave (bytes)
system.membus.pkt_size_system.cache.mem_side::total     26920320                       # Cumulative packet size per connected master and slave (bytes)
system.membus.pkt_size::total                70651527                       # Cumulative packet size per connected master and slave (bytes)
system.membus.snoops                                0                       # Total snoops (count)
system.membus.snoopTraffic                          0                       # Total snoop traffic (bytes)
system.membus.snoop_fanout::samples           5713875                       # Request fanout histogram
system.membus.snoop_fanout::mean                    0                       # Request fanout histogram
system.membus.snoop_fanout::stdev                   0                       # Request fanout histogram
system.membus.snoop_fanout::underflows              0      0.00%      0.00% # Request fanout histogram
system.membus.snoop_fanout::0                 5713875    100.00%    100.00% # Request fanout histogram
system.membus.snoop_fanout::1                       0      0.00%    100.00% # Request fanout histogram
system.membus.snoop_fanout::overflows               0      0.00%    100.00% # Request fanout histogram
system.membus.snoop_fanout::min_value               0                       # Request fanout histogram
system.membus.snoop_fanout::max_value               0                       # Request fanout histogram
system.membus.snoop_fanout::total             5713875                       # Request fanout histogram
system.membus.reqLayer2.occupancy          7465477000                       # Layer occupancy (ticks)
system.membus.reqLayer2.utilization               2.6                       # Layer utilization (%)
system.membus.respLayer1.occupancy          791731000                       # Layer occupancy (ticks)
system.membus.respLayer1.utilization              0.3                       # Layer utilization (%)
system.membus.respLayer0.occupancy        10655668250                       # Layer occupancy (ticks)
system.membus.respLayer0.utilization              3.8                       # Layer utilization (%)
system.membus.respLayer2.occupancy         1205138000                       # Layer occupancy (ticks)
system.membus.respLayer2.utilization              0.4                       # Layer utilization (%)
system.membus.power_state.pwrStateResidencyTicks::UNDEFINED 282939295000                       # Cumulative time (in ticks) in various power states
system.mem_ctrl.bytes_read::.cpu.inst        37607144                       # Number of bytes read from this memory
system.mem_ctrl.bytes_read::.cpu.data        14536167                       # Number of bytes read from this memory
system.mem_ctrl.bytes_read::total            52143311                       # Number of bytes read from this memory
system.mem_ctrl.bytes_inst_read::.cpu.inst     37607144                       # Number of instructions bytes read from this memory
system.mem_ctrl.bytes_inst_read::total       37607144                       # Number of instructions bytes read from this memory
system.mem_ctrl.bytes_written::.writebacks     12411584                       # Number of bytes written to this memory
system.mem_ctrl.bytes_written::.cpu.data      6096632                       # Number of bytes written to this memory
system.mem_ctrl.bytes_written::total         18508216                       # Number of bytes written to this memory
system.mem_ctrl.num_reads::.cpu.inst          4700893                       # Number of read requests responded to by this memory
system.mem_ctrl.num_reads::.cpu.data           231034                       # Number of read requests responded to by this memory
system.mem_ctrl.num_reads::total              4931927                       # Number of read requests responded to by this memory
system.mem_ctrl.num_writes::.writebacks        193931                       # Number of write requests responded to by this memory
system.mem_ctrl.num_writes::.cpu.data          781947                       # Number of write requests responded to by this memory
system.mem_ctrl.num_writes::total              975878                       # Number of write requests responded to by this memory
system.mem_ctrl.bw_read::.cpu.inst          132915946                       # Total read bandwidth from this memory (bytes/s)
system.mem_ctrl.bw_read::.cpu.data           51375568                       # Total read bandwidth from this memory (bytes/s)
system.mem_ctrl.bw_read::total              184291514                       # Total read bandwidth from this memory (bytes/s)
system.mem_ctrl.bw_inst_read::.cpu.inst     132915946                       # Instruction read bandwidth from this memory (bytes/s)
system.mem_ctrl.bw_inst_read::total         132915946                       # Instruction read bandwidth from this memory (bytes/s)
system.mem_ctrl.bw_write::.writebacks        43866597                       # Write bandwidth from this memory (bytes/s)
system.mem_ctrl.bw_write::.cpu.data          21547491                       # Write bandwidth from this memory (bytes/s)
system.mem_ctrl.bw_write::total              65414088                       # Write bandwidth from this memory (bytes/s)
system.mem_ctrl.bw_total::.writebacks        43866597                       # Total bandwidth to/from this memory (bytes/s)
system.mem_ctrl.bw_total::.cpu.inst         132915946                       # Total bandwidth to/from this memory (bytes/s)
system.mem_ctrl.bw_total::.cpu.data          72923059                       # Total bandwidth to/from this memory (bytes/s)
system.mem_ctrl.bw_total::total             249705602                       # Total bandwidth to/from this memory (bytes/s)
system.mem_ctrl.avgPriority_.writebacks::samples    193929.00                       # Average QoS priority value for accepted requests
system.mem_ctrl.avgPriority_.cpu.inst::samples   4700894.00                       # Average QoS priority value for accepted requests
system.mem_ctrl.avgPriority_.cpu.data::samples    328842.00                       # Average QoS priority value for accepted requests
system.mem_ctrl.priorityMinLatency       0.000000018750                       # per QoS priority minimum request to response latency (s)
system.mem_ctrl.priorityMaxLatency       0.054793736250                       # per QoS priority maximum request to response latency (s)
system.mem_ctrl.numReadWriteTurnArounds         18272                       # Number of turnarounds from READ to WRITE
system.mem_ctrl.numWriteReadTurnArounds         18272                       # Number of turnarounds from WRITE to READ
system.mem_ctrl.numStayReadState             10892387                       # Number of times bus staying in READ state
system.mem_ctrl.numStayWriteState              274534                       # Number of times bus staying in WRITE state
system.mem_ctrl.readReqs                      4931928                       # Number of read requests accepted
system.mem_ctrl.writeReqs                      975878                       # Number of write requests accepted
system.mem_ctrl.readBursts                    4931928                       # Number of DRAM read bursts, including those serviced by the write queue
system.mem_ctrl.writeBursts                    975878                       # Number of DRAM write bursts, including those merged in the write queue
system.mem_ctrl.servicedByWrQ                     668                       # Number of DRAM read bursts serviced by the write queue
system.mem_ctrl.mergedWrBursts                 683473                       # Number of DRAM write bursts merged with an existing one
system.mem_ctrl.neitherReadNorWriteReqs             0                       # Number of requests that are neither read nor write
system.mem_ctrl.perBankRdBursts::0            4692654                       # Per bank write bursts
system.mem_ctrl.perBankRdBursts::1              15173                       # Per bank write bursts
system.mem_ctrl.perBankRdBursts::2              14800                       # Per bank write bursts
system.mem_ctrl.perBankRdBursts::3              15207                       # Per bank write bursts
system.mem_ctrl.perBankRdBursts::4              15134                       # Per bank write bursts
system.mem_ctrl.perBankRdBursts::5              14594                       # Per bank write bursts
system.mem_ctrl.perBankRdBursts::6              15046                       # Per bank write bursts
system.mem_ctrl.perBankRdBursts::7              14204                       # Per bank write bursts
system.mem_ctrl.perBankRdBursts::8              14402                       # Per bank write bursts
system.mem_ctrl.perBankRdBursts::9              15788                       # Per bank write bursts
system.mem_ctrl.perBankRdBursts::10             15201                       # Per bank write bursts
system.mem_ctrl.perBankRdBursts::11             16034                       # Per bank write bursts
system.mem_ctrl.perBankRdBursts::12             17824                       # Per bank write bursts
system.mem_ctrl.perBankRdBursts::13             24208                       # Per bank write bursts
system.mem_ctrl.perBankRdBursts::14             15155                       # Per bank write bursts
system.mem_ctrl.perBankRdBursts::15             15836                       # Per bank write bursts
system.mem_ctrl.perBankWrBursts::0              18304                       # Per bank write bursts
system.mem_ctrl.perBankWrBursts::1              19103                       # Per bank write bursts
system.mem_ctrl.perBankWrBursts::2              18276                       # Per bank write bursts
system.mem_ctrl.perBankWrBursts::3              18176                       # Per bank write bursts
system.mem_ctrl.perBankWrBursts::4              18176                       # Per bank write bursts
system.mem_ctrl.perBankWrBursts::5              18176                       # Per bank write bursts
system.mem_ctrl.perBankWrBursts::6              18176                       # Per bank write bursts
system.mem_ctrl.perBankWrBursts::7              18176                       # Per bank write bursts
system.mem_ctrl.perBankWrBursts::8              18179                       # Per bank write bursts
system.mem_ctrl.perBankWrBursts::9              18245                       # Per bank write bursts
system.mem_ctrl.perBankWrBursts::10             18204                       # Per bank write bursts
system.mem_ctrl.perBankWrBursts::11             18243                       # Per bank write bursts
system.mem_ctrl.perBankWrBursts::12             18197                       # Per bank write bursts
system.mem_ctrl.perBankWrBursts::13             18206                       # Per bank write bursts
system.mem_ctrl.perBankWrBursts::14             18241                       # Per bank write bursts
system.mem_ctrl.perBankWrBursts::15             18304                       # Per bank write bursts
system.mem_ctrl.avgRdQLen                        1.00                       # Average read queue length when enqueuing
system.mem_ctrl.avgWrQLen                       26.01                       # Average write queue length when enqueuing
system.mem_ctrl.totQLat                   16296902500                       # Total ticks spent queuing
system.mem_ctrl.totBusLat                 24656300000                       # Total ticks spent in databus transfers
system.mem_ctrl.totMemAccLat             108758027500                       # Total ticks spent from burst creation until serviced by the DRAM
system.mem_ctrl.avgQLat                       3304.82                       # Average queueing delay per DRAM burst
system.mem_ctrl.avgBusLat                     5000.00                       # Average bus latency per DRAM burst
system.mem_ctrl.avgMemAccLat                 22054.82                       # Average memory access latency per DRAM burst
system.mem_ctrl.numRdRetry                          0                       # Number of times read queue was full causing retry
system.mem_ctrl.numWrRetry                          0                       # Number of times write queue was full causing retry
system.mem_ctrl.readRowHits                   4562308                       # Number of row buffer hits during reads
system.mem_ctrl.writeRowHits                   273018                       # Number of row buffer hits during writes
system.mem_ctrl.readRowHitRate                  92.52                       # Row buffer hit rate for reads
system.mem_ctrl.writeRowHitRate                 93.37                       # Row buffer hit rate for writes
system.mem_ctrl.readPktSize::0                    569                       # Read request sizes (log2)
system.mem_ctrl.readPktSize::1                     34                       # Read request sizes (log2)
system.mem_ctrl.readPktSize::2                    761                       # Read request sizes (log2)
system.mem_ctrl.readPktSize::3                4703865                       # Read request sizes (log2)
system.mem_ctrl.readPktSize::4                      0                       # Read request sizes (log2)
system.mem_ctrl.readPktSize::5                      0                       # Read request sizes (log2)
system.mem_ctrl.readPktSize::6                 226699                       # Read request sizes (log2)
system.mem_ctrl.writePktSize::0                   210                       # Write request sizes (log2)
system.mem_ctrl.writePktSize::1                    15                       # Write request sizes (log2)
system.mem_ctrl.writePktSize::2                 39346                       # Write request sizes (log2)
system.mem_ctrl.writePktSize::3                742376                       # Write request sizes (log2)
system.mem_ctrl.writePktSize::4                     0                       # Write request sizes (log2)
system.mem_ctrl.writePktSize::5                     0                       # Write request sizes (log2)
system.mem_ctrl.writePktSize::6                193931                       # Write request sizes (log2)
system.mem_ctrl.rdQLenPdf::0                  4931245                       # What read queue length does an incoming req see
system.mem_ctrl.rdQLenPdf::1                       15                       # What read queue length does an incoming req see
system.mem_ctrl.rdQLenPdf::2                        0                       # What read queue length does an incoming req see
system.mem_ctrl.rdQLenPdf::3                        0                       # What read queue length does an incoming req see
system.mem_ctrl.rdQLenPdf::4                        0                       # What read queue length does an incoming req see
system.mem_ctrl.rdQLenPdf::5                        0                       # What read queue length does an incoming req see
system.mem_ctrl.rdQLenPdf::6                        0                       # What read queue length does an incoming req see
system.mem_ctrl.rdQLenPdf::7                        0                       # What read queue length does an incoming req see
system.mem_ctrl.rdQLenPdf::8                        0                       # What read queue length does an incoming req see
system.mem_ctrl.rdQLenPdf::9                        0                       # What read queue length does an incoming req see
system.mem_ctrl.rdQLenPdf::10                       0                       # What read queue length does an incoming req see
system.mem_ctrl.rdQLenPdf::11                       0                       # What read queue length does an incoming req see
system.mem_ctrl.rdQLenPdf::12                       0                       # What read queue length does an incoming req see
system.mem_ctrl.rdQLenPdf::13                       0                       # What read queue length does an incoming req see
system.mem_ctrl.rdQLenPdf::14                       0                       # What read queue length does an incoming req see
system.mem_ctrl.rdQLenPdf::15                       0                       # What read queue length does an incoming req see
system.mem_ctrl.rdQLenPdf::16                       0                       # What read queue length does an incoming req see
system.mem_ctrl.rdQLenPdf::17                       0                       # What read queue length does an incoming req see
system.mem_ctrl.rdQLenPdf::18                       0                       # What read queue length does an incoming req see
system.mem_ctrl.rdQLenPdf::19                       0                       # What read queue length does an incoming req see
system.mem_ctrl.rdQLenPdf::20                       0                       # What read queue length does an incoming req see
system.mem_ctrl.rdQLenPdf::21                       0                       # What read queue length does an incoming req see
system.mem_ctrl.rdQLenPdf::22                       0                       # What read queue length does an incoming req see
system.mem_ctrl.rdQLenPdf::23                       0                       # What read queue length does an incoming req see
system.mem_ctrl.rdQLenPdf::24                       0                       # What read queue length does an incoming req see
system.mem_ctrl.rdQLenPdf::25                       0                       # What read queue length does an incoming req see
system.mem_ctrl.rdQLenPdf::26                       0                       # What read queue length does an incoming req see
system.mem_ctrl.rdQLenPdf::27                       0                       # What read queue length does an incoming req see
system.mem_ctrl.rdQLenPdf::28                       0                       # What read queue length does an incoming req see
system.mem_ctrl.rdQLenPdf::29                       0                       # What read queue length does an incoming req see
system.mem_ctrl.rdQLenPdf::30                       0                       # What read queue length does an incoming req see
system.mem_ctrl.rdQLenPdf::31                       0                       # What read queue length does an incoming req see
system.mem_ctrl.wrQLenPdf::0                        1                       # What write queue length does an incoming req see
system.mem_ctrl.wrQLenPdf::1                        1                       # What write queue length does an incoming req see
system.mem_ctrl.wrQLenPdf::2                        1                       # What write queue length does an incoming req see
system.mem_ctrl.wrQLenPdf::3                        1                       # What write queue length does an incoming req see
system.mem_ctrl.wrQLenPdf::4                        1                       # What write queue length does an incoming req see
system.mem_ctrl.wrQLenPdf::5                        1                       # What write queue length does an incoming req see
system.mem_ctrl.wrQLenPdf::6                        1                       # What write queue length does an incoming req see
system.mem_ctrl.wrQLenPdf::7                        1                       # What write queue length does an incoming req see
system.mem_ctrl.wrQLenPdf::8                        1                       # What write queue length does an incoming req see
system.mem_ctrl.wrQLenPdf::9                        1                       # What write queue length does an incoming req see
system.mem_ctrl.wrQLenPdf::10                       1                       # What write queue length does an incoming req see
system.mem_ctrl.wrQLenPdf::11                       1                       # What write queue length does an incoming req see
system.mem_ctrl.wrQLenPdf::12                       1                       # What write queue length does an incoming req see
system.mem_ctrl.wrQLenPdf::13                       1                       # What write queue length does an incoming req see
system.mem_ctrl.wrQLenPdf::14                       1                       # What write queue length does an incoming req see
system.mem_ctrl.wrQLenPdf::15                      16                       # What write queue length does an incoming req see
system.mem_ctrl.wrQLenPdf::16                      16                       # What write queue length does an incoming req see
system.mem_ctrl.wrQLenPdf::17                   18273                       # What write queue length does an incoming req see
system.mem_ctrl.wrQLenPdf::18                   18273                       # What write queue length does an incoming req see
system.mem_ctrl.wrQLenPdf::19                   18273                       # What write queue length does an incoming req see
system.mem_ctrl.wrQLenPdf::20                   18273                       # What write queue length does an incoming req see
system.mem_ctrl.wrQLenPdf::21                   18273                       # What write queue length does an incoming req see
system.mem_ctrl.wrQLenPdf::22                   18273                       # What write queue length does an incoming req see
system.mem_ctrl.wrQLenPdf::23                   18272                       # What write queue length does an incoming req see
system.mem_ctrl.wrQLenPdf::24                   18272                       # What write queue length does an incoming req see
system.mem_ctrl.wrQLenPdf::25                   18272                       # What write queue length does an incoming req see
system.mem_ctrl.wrQLenPdf::26                   18272                       # What write queue length does an incoming req see
system.mem_ctrl.wrQLenPdf::27                   18272                       # What write queue length does an incoming req see
system.mem_ctrl.wrQLenPdf::28                   18272                       # What write queue length does an incoming req see
system.mem_ctrl.wrQLenPdf::29                   18272                       # What write queue length does an incoming req see
system.mem_ctrl.wrQLenPdf::30                   18272                       # What write queue length does an incoming req see
system.mem_ctrl.wrQLenPdf::31                   18272                       # What write queue length does an incoming req see
system.mem_ctrl.wrQLenPdf::32                   18272                       # What write queue length does an incoming req see
system.mem_ctrl.wrQLenPdf::33                       0                       # What write queue length does an incoming req see
system.mem_ctrl.wrQLenPdf::34                       0                       # What write queue length does an incoming req see
system.mem_ctrl.wrQLenPdf::35                       0                       # What write queue length does an incoming req see
system.mem_ctrl.wrQLenPdf::36                       0                       # What write queue length does an incoming req see
system.mem_ctrl.wrQLenPdf::37                       0                       # What write queue length does an incoming req see
system.mem_ctrl.wrQLenPdf::38                       0                       # What write queue length does an incoming req see
system.mem_ctrl.wrQLenPdf::39                       0                       # What write queue length does an incoming req see
system.mem_ctrl.wrQLenPdf::40                       0                       # What write queue length does an incoming req see
system.mem_ctrl.wrQLenPdf::41                       0                       # What write queue length does an incoming req see
system.mem_ctrl.wrQLenPdf::42                       0                       # What write queue length does an incoming req see
system.mem_ctrl.wrQLenPdf::43                       0                       # What write queue length does an incoming req see
system.mem_ctrl.wrQLenPdf::44                       0                       # What write queue length does an incoming req see
system.mem_ctrl.wrQLenPdf::45                       0                       # What write queue length does an incoming req see
system.mem_ctrl.wrQLenPdf::46                       0                       # What write queue length does an incoming req see
system.mem_ctrl.wrQLenPdf::47                       0                       # What write queue length does an incoming req see
system.mem_ctrl.wrQLenPdf::48                       0                       # What write queue length does an incoming req see
system.mem_ctrl.wrQLenPdf::49                       0                       # What write queue length does an incoming req see
system.mem_ctrl.wrQLenPdf::50                       0                       # What write queue length does an incoming req see
system.mem_ctrl.wrQLenPdf::51                       0                       # What write queue length does an incoming req see
system.mem_ctrl.wrQLenPdf::52                       0                       # What write queue length does an incoming req see
system.mem_ctrl.wrQLenPdf::53                       0                       # What write queue length does an incoming req see
system.mem_ctrl.wrQLenPdf::54                       0                       # What write queue length does an incoming req see
system.mem_ctrl.wrQLenPdf::55                       0                       # What write queue length does an incoming req see
system.mem_ctrl.wrQLenPdf::56                       0                       # What write queue length does an incoming req see
system.mem_ctrl.wrQLenPdf::57                       0                       # What write queue length does an incoming req see
system.mem_ctrl.wrQLenPdf::58                       0                       # What write queue length does an incoming req see
system.mem_ctrl.wrQLenPdf::59                       0                       # What write queue length does an incoming req see
system.mem_ctrl.wrQLenPdf::60                       0                       # What write queue length does an incoming req see
system.mem_ctrl.wrQLenPdf::61                       0                       # What write queue length does an incoming req see
system.mem_ctrl.wrQLenPdf::62                       0                       # What write queue length does an incoming req see
system.mem_ctrl.wrQLenPdf::63                       0                       # What write queue length does an incoming req see
system.mem_ctrl.bytesPerActivate::samples       388314                       # Bytes accessed per row activation
system.mem_ctrl.bytesPerActivate::mean     860.932956                       # Bytes accessed per row activation
system.mem_ctrl.bytesPerActivate::gmean    745.670925                       # Bytes accessed per row activation
system.mem_ctrl.bytesPerActivate::stdev    300.084104                       # Bytes accessed per row activation
system.mem_ctrl.bytesPerActivate::0-127         17571      4.52%      4.52% # Bytes accessed per row activation
system.mem_ctrl.bytesPerActivate::128-255         9849      2.54%      7.06% # Bytes accessed per row activation
system.mem_ctrl.bytesPerActivate::256-383        14662      3.78%     10.84% # Bytes accessed per row activation
system.mem_ctrl.bytesPerActivate::384-511        20973      5.40%     16.24% # Bytes accessed per row activation
system.mem_ctrl.bytesPerActivate::512-639        17564      4.52%     20.76% # Bytes accessed per row activation
system.mem_ctrl.bytesPerActivate::640-767        12588      3.24%     24.00% # Bytes accessed per row activation
system.mem_ctrl.bytesPerActivate::768-895         6143      1.58%     25.58% # Bytes accessed per row activation
system.mem_ctrl.bytesPerActivate::896-1023          871      0.22%     25.81% # Bytes accessed per row activation
system.mem_ctrl.bytesPerActivate::1024-1151       288093     74.19%    100.00% # Bytes accessed per row activation
system.mem_ctrl.bytesPerActivate::total        388314                       # Bytes accessed per row activation
system.mem_ctrl.rdPerTurnAround::samples        18272                       # Reads before turning the bus around for writes
system.mem_ctrl.rdPerTurnAround::mean      269.875547                       # Reads before turning the bus around for writes
system.mem_ctrl.rdPerTurnAround::gmean     240.902058                       # Reads before turning the bus around for writes
system.mem_ctrl.rdPerTurnAround::stdev    3743.185989                       # Reads before turning the bus around for writes
system.mem_ctrl.rdPerTurnAround::0-16383        18270     99.99%     99.99% # Reads before turning the bus around for writes
system.mem_ctrl.rdPerTurnAround::16384-32767            1      0.01%     99.99% # Reads before turning the bus around for writes
system.mem_ctrl.rdPerTurnAround::491520-507903            1      0.01%    100.00% # Reads before turning the bus around for writes
system.mem_ctrl.rdPerTurnAround::total          18272                       # Reads before turning the bus around for writes
system.mem_ctrl.wrPerTurnAround::samples        18272                       # Writes before turning the bus around for reads
system.mem_ctrl.wrPerTurnAround::mean       16.001642                       # Writes before turning the bus around for reads
system.mem_ctrl.wrPerTurnAround::gmean      16.001547                       # Writes before turning the bus around for reads
system.mem_ctrl.wrPerTurnAround::stdev       0.057282                       # Writes before turning the bus around for reads
system.mem_ctrl.wrPerTurnAround::16             18257     99.92%     99.92% # Writes before turning the bus around for reads
system.mem_ctrl.wrPerTurnAround::18                15      0.08%    100.00% # Writes before turning the bus around for reads
system.mem_ctrl.wrPerTurnAround::total          18272                       # Writes before turning the bus around for reads
system.mem_ctrl.bytesReadDRAM               315600640                       # Total number of bytes read from DRAM
system.mem_ctrl.bytesReadWrQ                    42752                       # Total number of bytes read from write queue
system.mem_ctrl.bytesWritten                 18712448                       # Total number of bytes written to DRAM
system.mem_ctrl.bytesReadSys                 52143319                       # Total read bytes from the system interface side
system.mem_ctrl.bytesWrittenSys              18508216                       # Total written bytes from the system interface side
system.mem_ctrl.avgRdBW                       1115.44                       # Average DRAM read bandwidth in MiByte/s
system.mem_ctrl.avgWrBW                         66.14                       # Average achieved write bandwidth in MiByte/s
system.mem_ctrl.avgRdBWSys                     184.29                       # Average system read bandwidth in MiByte/s
system.mem_ctrl.avgWrBWSys                      65.41                       # Average system write bandwidth in MiByte/s
system.mem_ctrl.peakBW                       12800.00                       # Theoretical peak bandwidth in MiByte/s
system.mem_ctrl.busUtil                          9.23                       # Data bus utilization in percentage
system.mem_ctrl.busUtilRead                      8.71                       # Data bus utilization in percentage for reads
system.mem_ctrl.busUtilWrite                     0.52                       # Data bus utilization in percentage for writes
system.mem_ctrl.totGap                   282939218000                       # Total gap between requests
system.mem_ctrl.avgGap                       47892.44                       # Average gap between requests
system.mem_ctrl.masterReadBytes::.cpu.inst     37607152                       # Per-master bytes read from memory
system.mem_ctrl.masterReadBytes::.cpu.data     14532297                       # Per-master bytes read from memory
system.mem_ctrl.masterWriteBytes::.writebacks     12409984                       # Per-master bytes write to memory
system.mem_ctrl.masterWriteBytes::.cpu.data       631841                       # Per-master bytes write to memory
system.mem_ctrl.masterReadRate::.cpu.inst 132915974.078467965126                       # Per-master bytes read from memory rate (Bytes/sec)
system.mem_ctrl.masterReadRate::.cpu.data 51361890.189201191068                       # Per-master bytes read from memory rate (Bytes/sec)
system.mem_ctrl.masterWriteRate::.writebacks 43860941.973436392844                       # Per-master bytes write to memory rate (Bytes/sec)
system.mem_ctrl.masterWriteRate::.cpu.data 2233132.729054124560                       # Per-master bytes write to memory rate (Bytes/sec)
system.mem_ctrl.masterReadAccesses::.cpu.inst      4700894                       # Per-master read serviced memory accesses
system.mem_ctrl.masterReadAccesses::.cpu.data       231034                       # Per-master read serviced memory accesses
system.mem_ctrl.masterWriteAccesses::.writebacks       193931                       # Per-master write serviced memory accesses
system.mem_ctrl.masterWriteAccesses::.cpu.data       781947                       # Per-master write serviced memory accesses
system.mem_ctrl.masterReadTotalLat::.cpu.inst 103202566500                       # Per-master read total memory access latency
system.mem_ctrl.masterReadTotalLat::.cpu.data   5555461000                       # Per-master read total memory access latency
system.mem_ctrl.masterWriteTotalLat::.writebacks 4028244427000                       # Per-master write total memory access latency
system.mem_ctrl.masterWriteTotalLat::.cpu.data 3074735237750                       # Per-master write total memory access latency
system.mem_ctrl.masterReadAvgLat::.cpu.inst     21953.82                       # Per-master read average memory access latency
system.mem_ctrl.masterReadAvgLat::.cpu.data     24046.08                       # Per-master read average memory access latency
system.mem_ctrl.masterWriteAvgLat::.writebacks  20771534.34                       # Per-master write average memory access latency
system.mem_ctrl.masterWriteAvgLat::.cpu.data   3932152.99                       # Per-master write average memory access latency
system.mem_ctrl.pageHitRate                     92.57                       # Row buffer hit rate, read and write combined
system.mem_ctrl.rank1.actEnergy             204525300                       # Energy for activate commands per rank (pJ)
system.mem_ctrl.rank1.preEnergy             108707775                       # Energy for precharge commands per rank (pJ)
system.mem_ctrl.rank1.readEnergy            959958720                       # Energy for read commands per rank (pJ)
system.mem_ctrl.rank1.writeEnergy           761175180                       # Energy for write commands per rank (pJ)
system.mem_ctrl.rank1.refreshEnergy      22334788320.000004                       # Energy for refresh commands per rank (pJ)
system.mem_ctrl.rank1.actBackEnergy       43948043670                       # Energy for active background per rank (pJ)
system.mem_ctrl.rank1.preBackEnergy       71639810400                       # Energy for precharge background per rank (pJ)
system.mem_ctrl.rank1.actPowerDownEnergy            0                       # Energy for active power-down per rank (pJ)
system.mem_ctrl.rank1.prePowerDownEnergy            0                       # Energy for precharge power-down per rank (pJ)
system.mem_ctrl.rank1.selfRefreshEnergy             0                       # Energy for self refresh per rank (pJ)
system.mem_ctrl.rank1.totalEnergy        139957009365                       # Total energy per rank (pJ)
system.mem_ctrl.rank1.averagePower         494.653842                       # Core power per rank (mW)
system.mem_ctrl.rank1.totalIdleTime                 0                       # Total Idle time Per DRAM Rank
system.mem_ctrl.rank1.memoryStateTime::IDLE 185719439250                       # Time in different power states
system.mem_ctrl.rank1.memoryStateTime::REF   9447880000                       # Time in different power states
system.mem_ctrl.rank1.memoryStateTime::SREF            0                       # Time in different power states
system.mem_ctrl.rank1.memoryStateTime::PRE_PDN            0                       # Time in different power states
system.mem_ctrl.rank1.memoryStateTime::ACT  87771975750                       # Time in different power states
system.mem_ctrl.rank1.memoryStateTime::ACT_PDN            0                       # Time in different power states
system.mem_ctrl.rank0.actEnergy            2568050940                       # Energy for activate commands per rank (pJ)
system.mem_ctrl.rank0.preEnergy            1364943855                       # Energy for precharge commands per rank (pJ)
system.mem_ctrl.rank0.readEnergy          34249237680                       # Energy for read commands per rank (pJ)
system.mem_ctrl.rank0.writeEnergy           765058860                       # Energy for write commands per rank (pJ)
system.mem_ctrl.rank0.refreshEnergy      22334788320.000004                       # Energy for refresh commands per rank (pJ)
system.mem_ctrl.rank0.actBackEnergy      123931300950                       # Energy for active background per rank (pJ)
system.mem_ctrl.rank0.preBackEnergy        4285488480                       # Energy for precharge background per rank (pJ)
system.mem_ctrl.rank0.actPowerDownEnergy            0                       # Energy for active power-down per rank (pJ)
system.mem_ctrl.rank0.prePowerDownEnergy            0                       # Energy for precharge power-down per rank (pJ)
system.mem_ctrl.rank0.selfRefreshEnergy             0                       # Energy for self refresh per rank (pJ)
system.mem_ctrl.rank0.totalEnergy        189498869085                       # Total energy per rank (pJ)
system.mem_ctrl.rank0.averagePower         669.750976                       # Core power per rank (mW)
system.mem_ctrl.rank0.totalIdleTime                 0                       # Total Idle time Per DRAM Rank
system.mem_ctrl.rank0.memoryStateTime::IDLE   7173888750                       # Time in different power states
system.mem_ctrl.rank0.memoryStateTime::REF   9447880000                       # Time in different power states
system.mem_ctrl.rank0.memoryStateTime::SREF            0                       # Time in different power states
system.mem_ctrl.rank0.memoryStateTime::PRE_PDN            0                       # Time in different power states
system.mem_ctrl.rank0.memoryStateTime::ACT 266317526250                       # Time in different power states
system.mem_ctrl.rank0.memoryStateTime::ACT_PDN            0                       # Time in different power states
system.mem_ctrl.power_state.pwrStateResidencyTicks::UNDEFINED 282939295000                       # Cumulative time (in ticks) in various power states
system.cache.demand_hits::.cpu.data           1586872                       # number of demand (read+write) hits
system.cache.demand_hits::total               1586872                       # number of demand (read+write) hits
system.cache.overall_hits::.cpu.data          1586872                       # number of overall hits
system.cache.overall_hits::total              1586872                       # number of overall hits
system.cache.demand_misses::.cpu.data          226699                       # number of demand (read+write) misses
system.cache.demand_misses::total              226699                       # number of demand (read+write) misses
system.cache.overall_misses::.cpu.data         226699                       # number of overall misses
system.cache.overall_misses::total             226699                       # number of overall misses
system.cache.demand_miss_latency::.cpu.data  13474818000                       # number of demand (read+write) miss cycles
system.cache.demand_miss_latency::total   13474818000                       # number of demand (read+write) miss cycles
system.cache.overall_miss_latency::.cpu.data  13474818000                       # number of overall miss cycles
system.cache.overall_miss_latency::total  13474818000                       # number of overall miss cycles
system.cache.demand_accesses::.cpu.data       1813571                       # number of demand (read+write) accesses
system.cache.demand_accesses::total           1813571                       # number of demand (read+write) accesses
system.cache.overall_accesses::.cpu.data      1813571                       # number of overall (read+write) accesses
system.cache.overall_accesses::total          1813571                       # number of overall (read+write) accesses
system.cache.demand_miss_rate::.cpu.data     0.125001                       # miss rate for demand accesses
system.cache.demand_miss_rate::total         0.125001                       # miss rate for demand accesses
system.cache.overall_miss_rate::.cpu.data     0.125001                       # miss rate for overall accesses
system.cache.overall_miss_rate::total        0.125001                       # miss rate for overall accesses
system.cache.demand_avg_miss_latency::.cpu.data 59439.247637                       # average overall miss latency
system.cache.demand_avg_miss_latency::total 59439.247637                       # average overall miss latency
system.cache.overall_avg_miss_latency::.cpu.data 59439.247637                       # average overall miss latency
system.cache.overall_avg_miss_latency::total 59439.247637                       # average overall miss latency
system.cache.blocked_cycles::no_mshrs               0                       # number of cycles access was blocked
system.cache.blocked_cycles::no_targets             0                       # number of cycles access was blocked
system.cache.blocked::no_mshrs                      0                       # number of cycles access was blocked
system.cache.blocked::no_targets                    0                       # number of cycles access was blocked
system.cache.avg_blocked_cycles::no_mshrs          nan                       # average number of cycles each access was blocked
system.cache.avg_blocked_cycles::no_targets          nan                       # average number of cycles each access was blocked
system.cache.writebacks::.writebacks           193931                       # number of writebacks
system.cache.writebacks::total                 193931                       # number of writebacks
system.cache.demand_mshr_misses::.cpu.data       226699                       # number of demand (read+write) MSHR misses
system.cache.demand_mshr_misses::total         226699                       # number of demand (read+write) MSHR misses
system.cache.overall_mshr_misses::.cpu.data       226699                       # number of overall MSHR misses
system.cache.overall_mshr_misses::total        226699                       # number of overall MSHR misses
system.cache.demand_mshr_miss_latency::.cpu.data  13021420000                       # number of demand (read+write) MSHR miss cycles
system.cache.demand_mshr_miss_latency::total  13021420000                       # number of demand (read+write) MSHR miss cycles
system.cache.overall_mshr_miss_latency::.cpu.data  13021420000                       # number of overall MSHR miss cycles
system.cache.overall_mshr_miss_latency::total  13021420000                       # number of overall MSHR miss cycles
system.cache.demand_mshr_miss_rate::.cpu.data     0.125001                       # mshr miss rate for demand accesses
system.cache.demand_mshr_miss_rate::total     0.125001                       # mshr miss rate for demand accesses
system.cache.overall_mshr_miss_rate::.cpu.data     0.125001                       # mshr miss rate for overall accesses
system.cache.overall_mshr_miss_rate::total     0.125001                       # mshr miss rate for overall accesses
system.cache.demand_avg_mshr_miss_latency::.cpu.data 57439.247637                       # average overall mshr miss latency
system.cache.demand_avg_mshr_miss_latency::total 57439.247637                       # average overall mshr miss latency
system.cache.overall_avg_mshr_miss_latency::.cpu.data 57439.247637                       # average overall mshr miss latency
system.cache.overall_avg_mshr_miss_latency::total 57439.247637                       # average overall mshr miss latency
system.cache.replacements                      193931                       # number of replacements
system.cache.WriteReq_hits::.cpu.data         1586872                       # number of WriteReq hits
system.cache.WriteReq_hits::total             1586872                       # number of WriteReq hits
system.cache.WriteReq_misses::.cpu.data        226699                       # number of WriteReq misses
system.cache.WriteReq_misses::total            226699                       # number of WriteReq misses
system.cache.WriteReq_miss_latency::.cpu.data  13474818000                       # number of WriteReq miss cycles
system.cache.WriteReq_miss_latency::total  13474818000                       # number of WriteReq miss cycles
system.cache.WriteReq_accesses::.cpu.data      1813571                       # number of WriteReq accesses(hits+misses)
system.cache.WriteReq_accesses::total         1813571                       # number of WriteReq accesses(hits+misses)
system.cache.WriteReq_miss_rate::.cpu.data     0.125001                       # miss rate for WriteReq accesses
system.cache.WriteReq_miss_rate::total       0.125001                       # miss rate for WriteReq accesses
system.cache.WriteReq_avg_miss_latency::.cpu.data 59439.247637                       # average WriteReq miss latency
system.cache.WriteReq_avg_miss_latency::total 59439.247637                       # average WriteReq miss latency
system.cache.WriteReq_mshr_misses::.cpu.data       226699                       # number of WriteReq MSHR misses
system.cache.WriteReq_mshr_misses::total       226699                       # number of WriteReq MSHR misses
system.cache.WriteReq_mshr_miss_latency::.cpu.data  13021420000                       # number of WriteReq MSHR miss cycles
system.cache.WriteReq_mshr_miss_latency::total  13021420000                       # number of WriteReq MSHR miss cycles
system.cache.WriteReq_mshr_miss_rate::.cpu.data     0.125001                       # mshr miss rate for WriteReq accesses
system.cache.WriteReq_mshr_miss_rate::total     0.125001                       # mshr miss rate for WriteReq accesses
system.cache.WriteReq_avg_mshr_miss_latency::.cpu.data 57439.247637                       # average WriteReq mshr miss latency
system.cache.WriteReq_avg_mshr_miss_latency::total 57439.247637                       # average WriteReq mshr miss latency
system.cache.power_state.pwrStateResidencyTicks::UNDEFINED 282939295000                       # Cumulative time (in ticks) in various power states
system.cache.tags.tagsinuse              20596.606721                       # Cycle average of tags in use
system.cache.tags.total_refs                  1813571                       # Total number of references to valid blocks.
system.cache.tags.sampled_refs                 226699                       # Sample count of references to valid blocks.
system.cache.tags.avg_refs                   7.999907                       # Average number of references to valid blocks.
system.cache.tags.warmup_cycle            91414016000                       # Cycle when the warmup percentage was hit.
system.cache.tags.occ_blocks::.cpu.data  20596.606721                       # Average occupied blocks per requestor
system.cache.tags.occ_percent::.cpu.data     0.628559                       # Average percentage of cache occupancy
system.cache.tags.occ_percent::total         0.628559                       # Average percentage of cache occupancy
system.cache.tags.occ_task_id_blocks::1024        32768                       # Occupied blocks per task id
system.cache.tags.age_task_id_blocks_1024::0           13                       # Occupied blocks per task id
system.cache.tags.age_task_id_blocks_1024::1          106                       # Occupied blocks per task id
system.cache.tags.age_task_id_blocks_1024::2         1060                       # Occupied blocks per task id
system.cache.tags.age_task_id_blocks_1024::3        10634                       # Occupied blocks per task id
system.cache.tags.age_task_id_blocks_1024::4        20955                       # Occupied blocks per task id
system.cache.tags.occ_task_id_percent::1024            1                       # Percentage of cache occupancy per task id
system.cache.tags.tag_accesses                2040270                       # Number of tag accesses
system.cache.tags.data_accesses               2040270                       # Number of data accesses
system.cache.tags.power_state.pwrStateResidencyTicks::UNDEFINED 282939295000                       # Cumulative time (in ticks) in various power states
system.clk_domain.clock                          1000                       # Clock period in ticks
system.clk_domain.voltage_domain.voltage            1                       # Voltage in Volts
system.cachebus.trans_dist::WriteReq          1813571                       # Transaction distribution
system.cachebus.trans_dist::WriteResp         1813571                       # Transaction distribution
system.cachebus.trans_dist::WritebackDirty       193931                       # Transaction distribution
system.cachebus.pkt_count_system.memobj.cache_side::system.cache.cpu_side      3627142                       # Packet count per connected master and slave (bytes)
system.cachebus.pkt_size_system.memobj.cache_side::system.cache.cpu_side     14145856                       # Cumulative packet size per connected master and slave (bytes)
system.cachebus.snoops                         193931                       # Total snoops (count)
system.cachebus.snoopTraffic                 12411584                       # Total snoop traffic (bytes)
system.cachebus.snoop_fanout::samples         2007502                       # Request fanout histogram
system.cachebus.snoop_fanout::mean                  0                       # Request fanout histogram
system.cachebus.snoop_fanout::stdev                 0                       # Request fanout histogram
system.cachebus.snoop_fanout::underflows            0      0.00%      0.00% # Request fanout histogram
system.cachebus.snoop_fanout::0               2007502    100.00%    100.00% # Request fanout histogram
system.cachebus.snoop_fanout::overflows             0      0.00%    100.00% # Request fanout histogram
system.cachebus.snoop_fanout::min_value             0                       # Request fanout histogram
system.cachebus.snoop_fanout::max_value             0                       # Request fanout histogram
system.cachebus.snoop_fanout::total           2007502                       # Request fanout histogram
system.cachebus.reqLayer0.occupancy        3627142000                       # Layer occupancy (ticks)
system.cachebus.reqLayer0.utilization             1.3                       # Layer utilization (%)
system.cachebus.respLayer0.occupancy       1813571000                       # Layer occupancy (ticks)
system.cachebus.respLayer0.utilization            0.6                       # Layer utilization (%)
system.cachebus.power_state.pwrStateResidencyTicks::UNDEFINED 282939295000                       # Cumulative time (in ticks) in various power states
system.cpu.dtb.walker.power_state.pwrStateResidencyTicks::UNDEFINED 282939295000                       # Cumulative time (in ticks) in various power states
system.cpu.interrupts.clk_domain.clock          16000                       # Clock period in ticks
system.cpu.itb.walker.power_state.pwrStateResidencyTicks::UNDEFINED 282939295000                       # Cumulative time (in ticks) in various power states
system.cpu.power_state.numTransitions               1                       # Number of power state transitions
system.cpu.power_state.pwrStateResidencyTicks::ON 282939295000                       # Cumulative time (in ticks) in various power states

---------- End Simulation Statistics   ----------
