
---------- Begin Simulation Statistics ----------
final_tick                                11836324000                       # Number of ticks from beginning of simulation (restored from checkpoints and never reset)
host_inst_rate                                  59180                       # Simulator instruction rate (inst/s)
host_mem_usage                               34313476                       # Number of bytes of host memory used
host_op_rate                                    73975                       # Simulator op (including micro ops) rate (op/s)
host_seconds                                    16.90                       # Real time elapsed on the host
host_tick_rate                              700452043                       # Simulator tick rate (ticks/s)
sim_freq                                 1000000000000                       # Frequency of simulated ticks
sim_insts                                     1000012                       # Number of instructions simulated
sim_ops                                       1250029                       # Number of ops (including micro ops) simulated
sim_seconds                                  0.011836                       # Number of seconds simulated
sim_ticks                                 11836324000                       # Number of ticks simulated
system.cpu.Branches                             51353                       # Number of branches fetched
system.cpu.committedInsts                     1000012                       # Number of instructions committed
system.cpu.committedOps                       1250029                       # Number of ops (including micro ops) committed
system.cpu.dtb.rdAccesses                       11010                       # TLB accesses on read requests
system.cpu.dtb.rdMisses                            18                       # TLB misses on read requests
system.cpu.dtb.wrAccesses                      802315                       # TLB accesses on write requests
system.cpu.dtb.wrMisses                          3120                       # TLB misses on write requests
system.cpu.idle_fraction                            0                       # Percentage of idle cycles
system.cpu.itb.rdAccesses                           0                       # TLB accesses on read requests
system.cpu.itb.rdMisses                             0                       # TLB misses on read requests
system.cpu.itb.wrAccesses                     1534593                       # TLB accesses on write requests
system.cpu.itb.wrMisses                            67                       # TLB misses on write requests
system.cpu.not_idle_fraction                        1                       # Percentage of non-idle cycles
system.cpu.numCycles                         11836313                       # number of cpu cycles simulated
system.cpu.numWorkItemsCompleted                    0                       # number of work items this cpu completed
system.cpu.numWorkItemsStarted                      0                       # number of work items this cpu started
system.cpu.num_busy_cycles                   11836313                       # Number of busy cycles
system.cpu.num_cc_register_reads               260258                       # number of times the CC registers were read
system.cpu.num_cc_register_writes              267953                       # number of times the CC registers were written
system.cpu.num_conditional_control_insts        48675                       # number of instructions that are conditional controls
system.cpu.num_fp_alu_accesses                 756642                       # Number of float alu accesses
system.cpu.num_fp_insts                        756642                       # number of float instructions
system.cpu.num_fp_register_reads               758306                       # number of times the floating registers were read
system.cpu.num_fp_register_writes                2039                       # number of times the floating registers were written
system.cpu.num_func_calls                        1701                       # number of times a function call or return occured
system.cpu.num_idle_cycles                          0                       # Number of idle cycles
system.cpu.num_int_alu_accesses               1248864                       # Number of integer alu accesses
system.cpu.num_int_insts                      1248864                       # number of integer instructions
system.cpu.num_int_register_reads             3012078                       # number of times the integer registers were read
system.cpu.num_int_register_writes             395776                       # number of times the integer registers were written
system.cpu.num_load_insts                       10962                       # Number of load instructions
system.cpu.num_mem_refs                        813276                       # number of memory refs
system.cpu.num_store_insts                     802314                       # Number of store instructions
system.cpu.num_vec_alu_accesses                     0                       # Number of vector alu accesses
system.cpu.num_vec_insts                            0                       # number of vector instructions
system.cpu.num_vec_register_reads                   0                       # number of times the vector registers were read
system.cpu.num_vec_register_writes                  0                       # number of times the vector registers were written
system.cpu.op_class::No_OpClass                   851      0.07%      0.07% # Class of executed instruction
system.cpu.op_class::IntAlu                    435202     34.77%     34.84% # Class of executed instruction
system.cpu.op_class::IntMult                      170      0.01%     34.85% # Class of executed instruction
system.cpu.op_class::IntDiv                       105      0.01%     34.86% # Class of executed instruction
system.cpu.op_class::FloatAdd                      22      0.00%     34.86% # Class of executed instruction
system.cpu.op_class::FloatCmp                       0      0.00%     34.86% # Class of executed instruction
system.cpu.op_class::FloatCvt                       0      0.00%     34.86% # Class of executed instruction
system.cpu.op_class::FloatMult                      0      0.00%     34.86% # Class of executed instruction
system.cpu.op_class::FloatMultAcc                   0      0.00%     34.86% # Class of executed instruction
system.cpu.op_class::FloatDiv                       0      0.00%     34.86% # Class of executed instruction
system.cpu.op_class::FloatMisc                      0      0.00%     34.86% # Class of executed instruction
system.cpu.op_class::FloatSqrt                      0      0.00%     34.86% # Class of executed instruction
system.cpu.op_class::SimdAdd                        0      0.00%     34.86% # Class of executed instruction
system.cpu.op_class::SimdAddAcc                     0      0.00%     34.86% # Class of executed instruction
system.cpu.op_class::SimdAlu                     1024      0.08%     34.95% # Class of executed instruction
system.cpu.op_class::SimdCmp                        0      0.00%     34.95% # Class of executed instruction
system.cpu.op_class::SimdCvt                      426      0.03%     34.98% # Class of executed instruction
system.cpu.op_class::SimdMisc                     507      0.04%     35.02% # Class of executed instruction
system.cpu.op_class::SimdMult                       0      0.00%     35.02% # Class of executed instruction
system.cpu.op_class::SimdMultAcc                    0      0.00%     35.02% # Class of executed instruction
system.cpu.op_class::SimdShift                      0      0.00%     35.02% # Class of executed instruction
system.cpu.op_class::SimdShiftAcc                   0      0.00%     35.02% # Class of executed instruction
system.cpu.op_class::SimdDiv                        0      0.00%     35.02% # Class of executed instruction
system.cpu.op_class::SimdSqrt                       0      0.00%     35.02% # Class of executed instruction
system.cpu.op_class::SimdFloatAdd                   0      0.00%     35.02% # Class of executed instruction
system.cpu.op_class::SimdFloatAlu                   0      0.00%     35.02% # Class of executed instruction
system.cpu.op_class::SimdFloatCmp                   0      0.00%     35.02% # Class of executed instruction
system.cpu.op_class::SimdFloatCvt                   2      0.00%     35.02% # Class of executed instruction
system.cpu.op_class::SimdFloatDiv                   0      0.00%     35.02% # Class of executed instruction
system.cpu.op_class::SimdFloatMisc                  0      0.00%     35.02% # Class of executed instruction
system.cpu.op_class::SimdFloatMult                  0      0.00%     35.02% # Class of executed instruction
system.cpu.op_class::SimdFloatMultAcc               0      0.00%     35.02% # Class of executed instruction
system.cpu.op_class::SimdFloatSqrt                  0      0.00%     35.02% # Class of executed instruction
system.cpu.op_class::SimdReduceAdd                  0      0.00%     35.02% # Class of executed instruction
system.cpu.op_class::SimdReduceAlu                  0      0.00%     35.02% # Class of executed instruction
system.cpu.op_class::SimdReduceCmp                  0      0.00%     35.02% # Class of executed instruction
system.cpu.op_class::SimdFloatReduceAdd             0      0.00%     35.02% # Class of executed instruction
system.cpu.op_class::SimdFloatReduceCmp             0      0.00%     35.02% # Class of executed instruction
system.cpu.op_class::SimdAes                        0      0.00%     35.02% # Class of executed instruction
system.cpu.op_class::SimdAesMix                     0      0.00%     35.02% # Class of executed instruction
system.cpu.op_class::SimdSha1Hash                   0      0.00%     35.02% # Class of executed instruction
system.cpu.op_class::SimdSha1Hash2                  0      0.00%     35.02% # Class of executed instruction
system.cpu.op_class::SimdSha256Hash                 0      0.00%     35.02% # Class of executed instruction
system.cpu.op_class::SimdSha256Hash2                0      0.00%     35.02% # Class of executed instruction
system.cpu.op_class::SimdShaSigma2                  0      0.00%     35.02% # Class of executed instruction
system.cpu.op_class::SimdShaSigma3                  0      0.00%     35.02% # Class of executed instruction
system.cpu.op_class::SimdPredAlu                    0      0.00%     35.02% # Class of executed instruction
system.cpu.op_class::MemRead                    10592      0.85%     35.87% # Class of executed instruction
system.cpu.op_class::MemWrite                   48091      3.84%     39.71% # Class of executed instruction
system.cpu.op_class::FloatMemRead                 370      0.03%     39.74% # Class of executed instruction
system.cpu.op_class::FloatMemWrite             754223     60.26%    100.00% # Class of executed instruction
system.cpu.op_class::IprAccess                      0      0.00%    100.00% # Class of executed instruction
system.cpu.op_class::InstPrefetch                   0      0.00%    100.00% # Class of executed instruction
system.cpu.op_class::total                    1251585                       # Class of executed instruction
system.cpu.workload.numSyscalls                    73                       # Number of system calls
system.dynamic_cache.flushTicks                     0                       # Ticks taken to flush
system.dynamic_cache.numFlushes                     0                       # Number of Flushes Taken
system.cache_small.demand_hits::.cpu.inst          139                       # number of demand (read+write) hits
system.cache_small.demand_hits::.cpu.data           18                       # number of demand (read+write) hits
system.cache_small.demand_hits::total             157                       # number of demand (read+write) hits
system.cache_small.overall_hits::.cpu.inst          139                       # number of overall hits
system.cache_small.overall_hits::.cpu.data           18                       # number of overall hits
system.cache_small.overall_hits::total            157                       # number of overall hits
system.cache_small.demand_misses::.cpu.inst          750                       # number of demand (read+write) misses
system.cache_small.demand_misses::.cpu.data        99546                       # number of demand (read+write) misses
system.cache_small.demand_misses::total        100296                       # number of demand (read+write) misses
system.cache_small.overall_misses::.cpu.inst          750                       # number of overall misses
system.cache_small.overall_misses::.cpu.data        99546                       # number of overall misses
system.cache_small.overall_misses::total       100296                       # number of overall misses
system.cache_small.demand_miss_latency::.cpu.inst     44456000                       # number of demand (read+write) miss cycles
system.cache_small.demand_miss_latency::.cpu.data   5587118000                       # number of demand (read+write) miss cycles
system.cache_small.demand_miss_latency::total   5631574000                       # number of demand (read+write) miss cycles
system.cache_small.overall_miss_latency::.cpu.inst     44456000                       # number of overall miss cycles
system.cache_small.overall_miss_latency::.cpu.data   5587118000                       # number of overall miss cycles
system.cache_small.overall_miss_latency::total   5631574000                       # number of overall miss cycles
system.cache_small.demand_accesses::.cpu.inst          889                       # number of demand (read+write) accesses
system.cache_small.demand_accesses::.cpu.data        99564                       # number of demand (read+write) accesses
system.cache_small.demand_accesses::total       100453                       # number of demand (read+write) accesses
system.cache_small.overall_accesses::.cpu.inst          889                       # number of overall (read+write) accesses
system.cache_small.overall_accesses::.cpu.data        99564                       # number of overall (read+write) accesses
system.cache_small.overall_accesses::total       100453                       # number of overall (read+write) accesses
system.cache_small.demand_miss_rate::.cpu.inst     0.843645                       # miss rate for demand accesses
system.cache_small.demand_miss_rate::.cpu.data     0.999819                       # miss rate for demand accesses
system.cache_small.demand_miss_rate::total     0.998437                       # miss rate for demand accesses
system.cache_small.overall_miss_rate::.cpu.inst     0.843645                       # miss rate for overall accesses
system.cache_small.overall_miss_rate::.cpu.data     0.999819                       # miss rate for overall accesses
system.cache_small.overall_miss_rate::total     0.998437                       # miss rate for overall accesses
system.cache_small.demand_avg_miss_latency::.cpu.inst 59274.666667                       # average overall miss latency
system.cache_small.demand_avg_miss_latency::.cpu.data 56125.992004                       # average overall miss latency
system.cache_small.demand_avg_miss_latency::total 56149.537369                       # average overall miss latency
system.cache_small.overall_avg_miss_latency::.cpu.inst 59274.666667                       # average overall miss latency
system.cache_small.overall_avg_miss_latency::.cpu.data 56125.992004                       # average overall miss latency
system.cache_small.overall_avg_miss_latency::total 56149.537369                       # average overall miss latency
system.cache_small.blocked_cycles::no_mshrs            0                       # number of cycles access was blocked
system.cache_small.blocked_cycles::no_targets            0                       # number of cycles access was blocked
system.cache_small.blocked::no_mshrs                0                       # number of cycles access was blocked
system.cache_small.blocked::no_targets              0                       # number of cycles access was blocked
system.cache_small.avg_blocked_cycles::no_mshrs          nan                       # average number of cycles each access was blocked
system.cache_small.avg_blocked_cycles::no_targets          nan                       # average number of cycles each access was blocked
system.cache_small.demand_mshr_misses::.cpu.inst          750                       # number of demand (read+write) MSHR misses
system.cache_small.demand_mshr_misses::.cpu.data        99546                       # number of demand (read+write) MSHR misses
system.cache_small.demand_mshr_misses::total       100296                       # number of demand (read+write) MSHR misses
system.cache_small.overall_mshr_misses::.cpu.inst          750                       # number of overall MSHR misses
system.cache_small.overall_mshr_misses::.cpu.data        99546                       # number of overall MSHR misses
system.cache_small.overall_mshr_misses::total       100296                       # number of overall MSHR misses
system.cache_small.demand_mshr_miss_latency::.cpu.inst     42956000                       # number of demand (read+write) MSHR miss cycles
system.cache_small.demand_mshr_miss_latency::.cpu.data   5388026000                       # number of demand (read+write) MSHR miss cycles
system.cache_small.demand_mshr_miss_latency::total   5430982000                       # number of demand (read+write) MSHR miss cycles
system.cache_small.overall_mshr_miss_latency::.cpu.inst     42956000                       # number of overall MSHR miss cycles
system.cache_small.overall_mshr_miss_latency::.cpu.data   5388026000                       # number of overall MSHR miss cycles
system.cache_small.overall_mshr_miss_latency::total   5430982000                       # number of overall MSHR miss cycles
system.cache_small.demand_mshr_miss_rate::.cpu.inst     0.843645                       # mshr miss rate for demand accesses
system.cache_small.demand_mshr_miss_rate::.cpu.data     0.999819                       # mshr miss rate for demand accesses
system.cache_small.demand_mshr_miss_rate::total     0.998437                       # mshr miss rate for demand accesses
system.cache_small.overall_mshr_miss_rate::.cpu.inst     0.843645                       # mshr miss rate for overall accesses
system.cache_small.overall_mshr_miss_rate::.cpu.data     0.999819                       # mshr miss rate for overall accesses
system.cache_small.overall_mshr_miss_rate::total     0.998437                       # mshr miss rate for overall accesses
system.cache_small.demand_avg_mshr_miss_latency::.cpu.inst 57274.666667                       # average overall mshr miss latency
system.cache_small.demand_avg_mshr_miss_latency::.cpu.data 54125.992004                       # average overall mshr miss latency
system.cache_small.demand_avg_mshr_miss_latency::total 54149.537369                       # average overall mshr miss latency
system.cache_small.overall_avg_mshr_miss_latency::.cpu.inst 57274.666667                       # average overall mshr miss latency
system.cache_small.overall_avg_mshr_miss_latency::.cpu.data 54125.992004                       # average overall mshr miss latency
system.cache_small.overall_avg_mshr_miss_latency::total 54149.537369                       # average overall mshr miss latency
system.cache_small.replacements                     0                       # number of replacements
system.cache_small.ReadReq_hits::.cpu.inst          139                       # number of ReadReq hits
system.cache_small.ReadReq_hits::.cpu.data           18                       # number of ReadReq hits
system.cache_small.ReadReq_hits::total            157                       # number of ReadReq hits
system.cache_small.ReadReq_misses::.cpu.inst          750                       # number of ReadReq misses
system.cache_small.ReadReq_misses::.cpu.data        99546                       # number of ReadReq misses
system.cache_small.ReadReq_misses::total       100296                       # number of ReadReq misses
system.cache_small.ReadReq_miss_latency::.cpu.inst     44456000                       # number of ReadReq miss cycles
system.cache_small.ReadReq_miss_latency::.cpu.data   5587118000                       # number of ReadReq miss cycles
system.cache_small.ReadReq_miss_latency::total   5631574000                       # number of ReadReq miss cycles
system.cache_small.ReadReq_accesses::.cpu.inst          889                       # number of ReadReq accesses(hits+misses)
system.cache_small.ReadReq_accesses::.cpu.data        99564                       # number of ReadReq accesses(hits+misses)
system.cache_small.ReadReq_accesses::total       100453                       # number of ReadReq accesses(hits+misses)
system.cache_small.ReadReq_miss_rate::.cpu.inst     0.843645                       # miss rate for ReadReq accesses
system.cache_small.ReadReq_miss_rate::.cpu.data     0.999819                       # miss rate for ReadReq accesses
system.cache_small.ReadReq_miss_rate::total     0.998437                       # miss rate for ReadReq accesses
system.cache_small.ReadReq_avg_miss_latency::.cpu.inst 59274.666667                       # average ReadReq miss latency
system.cache_small.ReadReq_avg_miss_latency::.cpu.data 56125.992004                       # average ReadReq miss latency
system.cache_small.ReadReq_avg_miss_latency::total 56149.537369                       # average ReadReq miss latency
system.cache_small.ReadReq_mshr_misses::.cpu.inst          750                       # number of ReadReq MSHR misses
system.cache_small.ReadReq_mshr_misses::.cpu.data        99546                       # number of ReadReq MSHR misses
system.cache_small.ReadReq_mshr_misses::total       100296                       # number of ReadReq MSHR misses
system.cache_small.ReadReq_mshr_miss_latency::.cpu.inst     42956000                       # number of ReadReq MSHR miss cycles
system.cache_small.ReadReq_mshr_miss_latency::.cpu.data   5388026000                       # number of ReadReq MSHR miss cycles
system.cache_small.ReadReq_mshr_miss_latency::total   5430982000                       # number of ReadReq MSHR miss cycles
system.cache_small.ReadReq_mshr_miss_rate::.cpu.inst     0.843645                       # mshr miss rate for ReadReq accesses
system.cache_small.ReadReq_mshr_miss_rate::.cpu.data     0.999819                       # mshr miss rate for ReadReq accesses
system.cache_small.ReadReq_mshr_miss_rate::total     0.998437                       # mshr miss rate for ReadReq accesses
system.cache_small.ReadReq_avg_mshr_miss_latency::.cpu.inst 57274.666667                       # average ReadReq mshr miss latency
system.cache_small.ReadReq_avg_mshr_miss_latency::.cpu.data 54125.992004                       # average ReadReq mshr miss latency
system.cache_small.ReadReq_avg_mshr_miss_latency::total 54149.537369                       # average ReadReq mshr miss latency
system.cache_small.WritebackDirty_hits::.writebacks        98974                       # number of WritebackDirty hits
system.cache_small.WritebackDirty_hits::total        98974                       # number of WritebackDirty hits
system.cache_small.WritebackDirty_accesses::.writebacks        98974                       # number of WritebackDirty accesses(hits+misses)
system.cache_small.WritebackDirty_accesses::total        98974                       # number of WritebackDirty accesses(hits+misses)
system.cache_small.power_state.pwrStateResidencyTicks::UNDEFINED  11836324000                       # Cumulative time (in ticks) in various power states
system.cache_small.tags.tagsinuse        49637.795336                       # Cycle average of tags in use
system.cache_small.tags.total_refs                  0                       # Total number of references to valid blocks.
system.cache_small.tags.sampled_refs                0                       # Sample count of references to valid blocks.
system.cache_small.tags.avg_refs                  nan                       # Average number of references to valid blocks.
system.cache_small.tags.warmup_cycle            76000                       # Cycle when the warmup percentage was hit.
system.cache_small.tags.occ_blocks::.cpu.inst   742.842231                       # Average occupied blocks per requestor
system.cache_small.tags.occ_blocks::.cpu.data 48894.953105                       # Average occupied blocks per requestor
system.cache_small.tags.occ_percent::.cpu.inst     0.005667                       # Average percentage of cache occupancy
system.cache_small.tags.occ_percent::.cpu.data     0.373039                       # Average percentage of cache occupancy
system.cache_small.tags.occ_percent::total     0.378706                       # Average percentage of cache occupancy
system.cache_small.tags.occ_task_id_blocks::1024       100296                       # Occupied blocks per task id
system.cache_small.tags.age_task_id_blocks_1024::0           85                       # Occupied blocks per task id
system.cache_small.tags.age_task_id_blocks_1024::1          771                       # Occupied blocks per task id
system.cache_small.tags.age_task_id_blocks_1024::2         7705                       # Occupied blocks per task id
system.cache_small.tags.age_task_id_blocks_1024::3        77059                       # Occupied blocks per task id
system.cache_small.tags.age_task_id_blocks_1024::4        14676                       # Occupied blocks per task id
system.cache_small.tags.occ_task_id_percent::1024     0.765198                       # Percentage of cache occupancy per task id
system.cache_small.tags.tag_accesses           299723                       # Number of tag accesses
system.cache_small.tags.data_accesses          299723                       # Number of data accesses
system.cache_small.tags.power_state.pwrStateResidencyTicks::UNDEFINED  11836324000                       # Cumulative time (in ticks) in various power states
system.icache.demand_hits::.cpu.inst          1533634                       # number of demand (read+write) hits
system.icache.demand_hits::total              1533634                       # number of demand (read+write) hits
system.icache.overall_hits::.cpu.inst         1533634                       # number of overall hits
system.icache.overall_hits::total             1533634                       # number of overall hits
system.icache.demand_misses::.cpu.inst            959                       # number of demand (read+write) misses
system.icache.demand_misses::total                959                       # number of demand (read+write) misses
system.icache.overall_misses::.cpu.inst           959                       # number of overall misses
system.icache.overall_misses::total               959                       # number of overall misses
system.icache.demand_miss_latency::.cpu.inst     60929000                       # number of demand (read+write) miss cycles
system.icache.demand_miss_latency::total     60929000                       # number of demand (read+write) miss cycles
system.icache.overall_miss_latency::.cpu.inst     60929000                       # number of overall miss cycles
system.icache.overall_miss_latency::total     60929000                       # number of overall miss cycles
system.icache.demand_accesses::.cpu.inst      1534593                       # number of demand (read+write) accesses
system.icache.demand_accesses::total          1534593                       # number of demand (read+write) accesses
system.icache.overall_accesses::.cpu.inst      1534593                       # number of overall (read+write) accesses
system.icache.overall_accesses::total         1534593                       # number of overall (read+write) accesses
system.icache.demand_miss_rate::.cpu.inst     0.000625                       # miss rate for demand accesses
system.icache.demand_miss_rate::total        0.000625                       # miss rate for demand accesses
system.icache.overall_miss_rate::.cpu.inst     0.000625                       # miss rate for overall accesses
system.icache.overall_miss_rate::total       0.000625                       # miss rate for overall accesses
system.icache.demand_avg_miss_latency::.cpu.inst 63533.889468                       # average overall miss latency
system.icache.demand_avg_miss_latency::total 63533.889468                       # average overall miss latency
system.icache.overall_avg_miss_latency::.cpu.inst 63533.889468                       # average overall miss latency
system.icache.overall_avg_miss_latency::total 63533.889468                       # average overall miss latency
system.icache.blocked_cycles::no_mshrs              0                       # number of cycles access was blocked
system.icache.blocked_cycles::no_targets            0                       # number of cycles access was blocked
system.icache.blocked::no_mshrs                     0                       # number of cycles access was blocked
system.icache.blocked::no_targets                   0                       # number of cycles access was blocked
system.icache.avg_blocked_cycles::no_mshrs          nan                       # average number of cycles each access was blocked
system.icache.avg_blocked_cycles::no_targets          nan                       # average number of cycles each access was blocked
system.icache.demand_mshr_misses::.cpu.inst          959                       # number of demand (read+write) MSHR misses
system.icache.demand_mshr_misses::total           959                       # number of demand (read+write) MSHR misses
system.icache.overall_mshr_misses::.cpu.inst          959                       # number of overall MSHR misses
system.icache.overall_mshr_misses::total          959                       # number of overall MSHR misses
system.icache.demand_mshr_miss_latency::.cpu.inst     59011000                       # number of demand (read+write) MSHR miss cycles
system.icache.demand_mshr_miss_latency::total     59011000                       # number of demand (read+write) MSHR miss cycles
system.icache.overall_mshr_miss_latency::.cpu.inst     59011000                       # number of overall MSHR miss cycles
system.icache.overall_mshr_miss_latency::total     59011000                       # number of overall MSHR miss cycles
system.icache.demand_mshr_miss_rate::.cpu.inst     0.000625                       # mshr miss rate for demand accesses
system.icache.demand_mshr_miss_rate::total     0.000625                       # mshr miss rate for demand accesses
system.icache.overall_mshr_miss_rate::.cpu.inst     0.000625                       # mshr miss rate for overall accesses
system.icache.overall_mshr_miss_rate::total     0.000625                       # mshr miss rate for overall accesses
system.icache.demand_avg_mshr_miss_latency::.cpu.inst 61533.889468                       # average overall mshr miss latency
system.icache.demand_avg_mshr_miss_latency::total 61533.889468                       # average overall mshr miss latency
system.icache.overall_avg_mshr_miss_latency::.cpu.inst 61533.889468                       # average overall mshr miss latency
system.icache.overall_avg_mshr_miss_latency::total 61533.889468                       # average overall mshr miss latency
system.icache.replacements                        712                       # number of replacements
system.icache.ReadReq_hits::.cpu.inst         1533634                       # number of ReadReq hits
system.icache.ReadReq_hits::total             1533634                       # number of ReadReq hits
system.icache.ReadReq_misses::.cpu.inst           959                       # number of ReadReq misses
system.icache.ReadReq_misses::total               959                       # number of ReadReq misses
system.icache.ReadReq_miss_latency::.cpu.inst     60929000                       # number of ReadReq miss cycles
system.icache.ReadReq_miss_latency::total     60929000                       # number of ReadReq miss cycles
system.icache.ReadReq_accesses::.cpu.inst      1534593                       # number of ReadReq accesses(hits+misses)
system.icache.ReadReq_accesses::total         1534593                       # number of ReadReq accesses(hits+misses)
system.icache.ReadReq_miss_rate::.cpu.inst     0.000625                       # miss rate for ReadReq accesses
system.icache.ReadReq_miss_rate::total       0.000625                       # miss rate for ReadReq accesses
system.icache.ReadReq_avg_miss_latency::.cpu.inst 63533.889468                       # average ReadReq miss latency
system.icache.ReadReq_avg_miss_latency::total 63533.889468                       # average ReadReq miss latency
system.icache.ReadReq_mshr_misses::.cpu.inst          959                       # number of ReadReq MSHR misses
system.icache.ReadReq_mshr_misses::total          959                       # number of ReadReq MSHR misses
system.icache.ReadReq_mshr_miss_latency::.cpu.inst     59011000                       # number of ReadReq MSHR miss cycles
system.icache.ReadReq_mshr_miss_latency::total     59011000                       # number of ReadReq MSHR miss cycles
system.icache.ReadReq_mshr_miss_rate::.cpu.inst     0.000625                       # mshr miss rate for ReadReq accesses
system.icache.ReadReq_mshr_miss_rate::total     0.000625                       # mshr miss rate for ReadReq accesses
system.icache.ReadReq_avg_mshr_miss_latency::.cpu.inst 61533.889468                       # average ReadReq mshr miss latency
system.icache.ReadReq_avg_mshr_miss_latency::total 61533.889468                       # average ReadReq mshr miss latency
system.icache.power_state.pwrStateResidencyTicks::UNDEFINED  11836324000                       # Cumulative time (in ticks) in various power states
system.icache.tags.tagsinuse               245.918325                       # Cycle average of tags in use
system.icache.tags.total_refs                   43294                       # Total number of references to valid blocks.
system.icache.tags.sampled_refs                   712                       # Sample count of references to valid blocks.
system.icache.tags.avg_refs                 60.806180                       # Average number of references to valid blocks.
system.icache.tags.warmup_cycle                 82000                       # Cycle when the warmup percentage was hit.
system.icache.tags.occ_blocks::.cpu.inst   245.918325                       # Average occupied blocks per requestor
system.icache.tags.occ_percent::.cpu.inst     0.960618                       # Average percentage of cache occupancy
system.icache.tags.occ_percent::total        0.960618                       # Average percentage of cache occupancy
system.icache.tags.occ_task_id_blocks::1024          247                       # Occupied blocks per task id
system.icache.tags.age_task_id_blocks_1024::4          247                       # Occupied blocks per task id
system.icache.tags.occ_task_id_percent::1024     0.964844                       # Percentage of cache occupancy per task id
system.icache.tags.tag_accesses               1535552                       # Number of tag accesses
system.icache.tags.data_accesses              1535552                       # Number of data accesses
system.icache.tags.power_state.pwrStateResidencyTicks::UNDEFINED  11836324000                       # Cumulative time (in ticks) in various power states
system.membus.trans_dist::ReadReq              100296                       # Transaction distribution
system.membus.trans_dist::ReadResp             100296                       # Transaction distribution
system.membus.pkt_count_system.cache_small.mem_side::system.mem_ctrl.port       200592                       # Packet count per connected master and slave (bytes)
system.membus.pkt_count_system.cache_small.mem_side::total       200592                       # Packet count per connected master and slave (bytes)
system.membus.pkt_count::total                 200592                       # Packet count per connected master and slave (bytes)
system.membus.pkt_size_system.cache_small.mem_side::system.mem_ctrl.port      6418944                       # Cumulative packet size per connected master and slave (bytes)
system.membus.pkt_size_system.cache_small.mem_side::total      6418944                       # Cumulative packet size per connected master and slave (bytes)
system.membus.pkt_size::total                 6418944                       # Cumulative packet size per connected master and slave (bytes)
system.membus.reqLayer2.occupancy           100296000                       # Layer occupancy (ticks)
system.membus.reqLayer2.utilization               0.8                       # Layer utilization (%)
system.membus.respLayer1.occupancy          528372000                       # Layer occupancy (ticks)
system.membus.respLayer1.utilization              4.5                       # Layer utilization (%)
system.membus.power_state.pwrStateResidencyTicks::UNDEFINED  11836324000                       # Cumulative time (in ticks) in various power states
system.mem_ctrl.bytes_read::.cpu.inst           48000                       # Number of bytes read from this memory
system.mem_ctrl.bytes_read::.cpu.data         6370944                       # Number of bytes read from this memory
system.mem_ctrl.bytes_read::total             6418944                       # Number of bytes read from this memory
system.mem_ctrl.bytes_inst_read::.cpu.inst        48000                       # Number of instructions bytes read from this memory
system.mem_ctrl.bytes_inst_read::total          48000                       # Number of instructions bytes read from this memory
system.mem_ctrl.num_reads::.cpu.inst              750                       # Number of read requests responded to by this memory
system.mem_ctrl.num_reads::.cpu.data            99546                       # Number of read requests responded to by this memory
system.mem_ctrl.num_reads::total               100296                       # Number of read requests responded to by this memory
system.mem_ctrl.bw_read::.cpu.inst            4055313                       # Total read bandwidth from this memory (bytes/s)
system.mem_ctrl.bw_read::.cpu.data          538253600                       # Total read bandwidth from this memory (bytes/s)
system.mem_ctrl.bw_read::total              542308913                       # Total read bandwidth from this memory (bytes/s)
system.mem_ctrl.bw_inst_read::.cpu.inst       4055313                       # Instruction read bandwidth from this memory (bytes/s)
system.mem_ctrl.bw_inst_read::total           4055313                       # Instruction read bandwidth from this memory (bytes/s)
system.mem_ctrl.bw_total::.cpu.inst           4055313                       # Total bandwidth to/from this memory (bytes/s)
system.mem_ctrl.bw_total::.cpu.data         538253600                       # Total bandwidth to/from this memory (bytes/s)
system.mem_ctrl.bw_total::total             542308913                       # Total bandwidth to/from this memory (bytes/s)
system.mem_ctrl.avgPriority_.cpu.inst::samples       750.00                       # Average QoS priority value for accepted requests
system.mem_ctrl.avgPriority_.cpu.data::samples     99546.00                       # Average QoS priority value for accepted requests
system.mem_ctrl.priorityMinLatency       0.000000018750                       # per QoS priority minimum request to response latency (s)
system.mem_ctrl.priorityMaxLatency       0.000000573500                       # per QoS priority maximum request to response latency (s)
system.mem_ctrl.numReadWriteTurnArounds             0                       # Number of turnarounds from READ to WRITE
system.mem_ctrl.numWriteReadTurnArounds             0                       # Number of turnarounds from WRITE to READ
system.mem_ctrl.numStayReadState               203632                       # Number of times bus staying in READ state
system.mem_ctrl.numStayWriteState                   0                       # Number of times bus staying in WRITE state
system.mem_ctrl.readReqs                       100296                       # Number of read requests accepted
system.mem_ctrl.writeReqs                           0                       # Number of write requests accepted
system.mem_ctrl.readBursts                     100296                       # Number of DRAM read bursts, including those serviced by the write queue
system.mem_ctrl.writeBursts                         0                       # Number of DRAM write bursts, including those merged in the write queue
system.mem_ctrl.servicedByWrQ                       0                       # Number of DRAM read bursts serviced by the write queue
system.mem_ctrl.mergedWrBursts                      0                       # Number of DRAM write bursts merged with an existing one
system.mem_ctrl.neitherReadNorWriteReqs             0                       # Number of requests that are neither read nor write
system.mem_ctrl.perBankRdBursts::0               6397                       # Per bank write bursts
system.mem_ctrl.perBankRdBursts::1               6247                       # Per bank write bursts
system.mem_ctrl.perBankRdBursts::2               6234                       # Per bank write bursts
system.mem_ctrl.perBankRdBursts::3               6218                       # Per bank write bursts
system.mem_ctrl.perBankRdBursts::4               6348                       # Per bank write bursts
system.mem_ctrl.perBankRdBursts::5               6213                       # Per bank write bursts
system.mem_ctrl.perBankRdBursts::6               6194                       # Per bank write bursts
system.mem_ctrl.perBankRdBursts::7               6207                       # Per bank write bursts
system.mem_ctrl.perBankRdBursts::8               6213                       # Per bank write bursts
system.mem_ctrl.perBankRdBursts::9               6212                       # Per bank write bursts
system.mem_ctrl.perBankRdBursts::10              6245                       # Per bank write bursts
system.mem_ctrl.perBankRdBursts::11              6295                       # Per bank write bursts
system.mem_ctrl.perBankRdBursts::12              6276                       # Per bank write bursts
system.mem_ctrl.perBankRdBursts::13              6294                       # Per bank write bursts
system.mem_ctrl.perBankRdBursts::14              6395                       # Per bank write bursts
system.mem_ctrl.perBankRdBursts::15              6308                       # Per bank write bursts
system.mem_ctrl.perBankWrBursts::0                  0                       # Per bank write bursts
system.mem_ctrl.perBankWrBursts::1                  0                       # Per bank write bursts
system.mem_ctrl.perBankWrBursts::2                  0                       # Per bank write bursts
system.mem_ctrl.perBankWrBursts::3                  0                       # Per bank write bursts
system.mem_ctrl.perBankWrBursts::4                  0                       # Per bank write bursts
system.mem_ctrl.perBankWrBursts::5                  0                       # Per bank write bursts
system.mem_ctrl.perBankWrBursts::6                  0                       # Per bank write bursts
system.mem_ctrl.perBankWrBursts::7                  0                       # Per bank write bursts
system.mem_ctrl.perBankWrBursts::8                  0                       # Per bank write bursts
system.mem_ctrl.perBankWrBursts::9                  0                       # Per bank write bursts
system.mem_ctrl.perBankWrBursts::10                 0                       # Per bank write bursts
system.mem_ctrl.perBankWrBursts::11                 0                       # Per bank write bursts
system.mem_ctrl.perBankWrBursts::12                 0                       # Per bank write bursts
system.mem_ctrl.perBankWrBursts::13                 0                       # Per bank write bursts
system.mem_ctrl.perBankWrBursts::14                 0                       # Per bank write bursts
system.mem_ctrl.perBankWrBursts::15                 0                       # Per bank write bursts
system.mem_ctrl.avgRdQLen                        1.00                       # Average read queue length when enqueuing
system.mem_ctrl.avgWrQLen                        0.00                       # Average write queue length when enqueuing
system.mem_ctrl.totQLat                     414364000                       # Total ticks spent queuing
system.mem_ctrl.totBusLat                   501480000                       # Total ticks spent in databus transfers
system.mem_ctrl.totMemAccLat               2294914000                       # Total ticks spent from burst creation until serviced by the DRAM
system.mem_ctrl.avgQLat                       4131.41                       # Average queueing delay per DRAM burst
system.mem_ctrl.avgBusLat                     5000.00                       # Average bus latency per DRAM burst
system.mem_ctrl.avgMemAccLat                 22881.41                       # Average memory access latency per DRAM burst
system.mem_ctrl.numRdRetry                          0                       # Number of times read queue was full causing retry
system.mem_ctrl.numWrRetry                          0                       # Number of times write queue was full causing retry
system.mem_ctrl.readRowHits                     92392                       # Number of row buffer hits during reads
system.mem_ctrl.writeRowHits                        0                       # Number of row buffer hits during writes
system.mem_ctrl.readRowHitRate                  92.12                       # Row buffer hit rate for reads
system.mem_ctrl.writeRowHitRate                   nan                       # Row buffer hit rate for writes
system.mem_ctrl.readPktSize::0                      0                       # Read request sizes (log2)
system.mem_ctrl.readPktSize::1                      0                       # Read request sizes (log2)
system.mem_ctrl.readPktSize::2                      0                       # Read request sizes (log2)
system.mem_ctrl.readPktSize::3                      0                       # Read request sizes (log2)
system.mem_ctrl.readPktSize::4                      0                       # Read request sizes (log2)
system.mem_ctrl.readPktSize::5                      0                       # Read request sizes (log2)
system.mem_ctrl.readPktSize::6                 100296                       # Read request sizes (log2)
system.mem_ctrl.writePktSize::0                     0                       # Write request sizes (log2)
system.mem_ctrl.writePktSize::1                     0                       # Write request sizes (log2)
system.mem_ctrl.writePktSize::2                     0                       # Write request sizes (log2)
system.mem_ctrl.writePktSize::3                     0                       # Write request sizes (log2)
system.mem_ctrl.writePktSize::4                     0                       # Write request sizes (log2)
system.mem_ctrl.writePktSize::5                     0                       # Write request sizes (log2)
system.mem_ctrl.writePktSize::6                     0                       # Write request sizes (log2)
system.mem_ctrl.rdQLenPdf::0                   100296                       # What read queue length does an incoming req see
system.mem_ctrl.rdQLenPdf::1                        0                       # What read queue length does an incoming req see
system.mem_ctrl.rdQLenPdf::2                        0                       # What read queue length does an incoming req see
system.mem_ctrl.rdQLenPdf::3                        0                       # What read queue length does an incoming req see
system.mem_ctrl.rdQLenPdf::4                        0                       # What read queue length does an incoming req see
system.mem_ctrl.rdQLenPdf::5                        0                       # What read queue length does an incoming req see
system.mem_ctrl.rdQLenPdf::6                        0                       # What read queue length does an incoming req see
system.mem_ctrl.rdQLenPdf::7                        0                       # What read queue length does an incoming req see
system.mem_ctrl.rdQLenPdf::8                        0                       # What read queue length does an incoming req see
system.mem_ctrl.rdQLenPdf::9                        0                       # What read queue length does an incoming req see
system.mem_ctrl.rdQLenPdf::10                       0                       # What read queue length does an incoming req see
system.mem_ctrl.rdQLenPdf::11                       0                       # What read queue length does an incoming req see
system.mem_ctrl.rdQLenPdf::12                       0                       # What read queue length does an incoming req see
system.mem_ctrl.rdQLenPdf::13                       0                       # What read queue length does an incoming req see
system.mem_ctrl.rdQLenPdf::14                       0                       # What read queue length does an incoming req see
system.mem_ctrl.rdQLenPdf::15                       0                       # What read queue length does an incoming req see
system.mem_ctrl.rdQLenPdf::16                       0                       # What read queue length does an incoming req see
system.mem_ctrl.rdQLenPdf::17                       0                       # What read queue length does an incoming req see
system.mem_ctrl.rdQLenPdf::18                       0                       # What read queue length does an incoming req see
system.mem_ctrl.rdQLenPdf::19                       0                       # What read queue length does an incoming req see
system.mem_ctrl.rdQLenPdf::20                       0                       # What read queue length does an incoming req see
system.mem_ctrl.rdQLenPdf::21                       0                       # What read queue length does an incoming req see
system.mem_ctrl.rdQLenPdf::22                       0                       # What read queue length does an incoming req see
system.mem_ctrl.rdQLenPdf::23                       0                       # What read queue length does an incoming req see
system.mem_ctrl.rdQLenPdf::24                       0                       # What read queue length does an incoming req see
system.mem_ctrl.rdQLenPdf::25                       0                       # What read queue length does an incoming req see
system.mem_ctrl.rdQLenPdf::26                       0                       # What read queue length does an incoming req see
system.mem_ctrl.rdQLenPdf::27                       0                       # What read queue length does an incoming req see
system.mem_ctrl.rdQLenPdf::28                       0                       # What read queue length does an incoming req see
system.mem_ctrl.rdQLenPdf::29                       0                       # What read queue length does an incoming req see
system.mem_ctrl.rdQLenPdf::30                       0                       # What read queue length does an incoming req see
system.mem_ctrl.rdQLenPdf::31                       0                       # What read queue length does an incoming req see
system.mem_ctrl.wrQLenPdf::0                        0                       # What write queue length does an incoming req see
system.mem_ctrl.wrQLenPdf::1                        0                       # What write queue length does an incoming req see
system.mem_ctrl.wrQLenPdf::2                        0                       # What write queue length does an incoming req see
system.mem_ctrl.wrQLenPdf::3                        0                       # What write queue length does an incoming req see
system.mem_ctrl.wrQLenPdf::4                        0                       # What write queue length does an incoming req see
system.mem_ctrl.wrQLenPdf::5                        0                       # What write queue length does an incoming req see
system.mem_ctrl.wrQLenPdf::6                        0                       # What write queue length does an incoming req see
system.mem_ctrl.wrQLenPdf::7                        0                       # What write queue length does an incoming req see
system.mem_ctrl.wrQLenPdf::8                        0                       # What write queue length does an incoming req see
system.mem_ctrl.wrQLenPdf::9                        0                       # What write queue length does an incoming req see
system.mem_ctrl.wrQLenPdf::10                       0                       # What write queue length does an incoming req see
system.mem_ctrl.wrQLenPdf::11                       0                       # What write queue length does an incoming req see
system.mem_ctrl.wrQLenPdf::12                       0                       # What write queue length does an incoming req see
system.mem_ctrl.wrQLenPdf::13                       0                       # What write queue length does an incoming req see
system.mem_ctrl.wrQLenPdf::14                       0                       # What write queue length does an incoming req see
system.mem_ctrl.wrQLenPdf::15                       0                       # What write queue length does an incoming req see
system.mem_ctrl.wrQLenPdf::16                       0                       # What write queue length does an incoming req see
system.mem_ctrl.wrQLenPdf::17                       0                       # What write queue length does an incoming req see
system.mem_ctrl.wrQLenPdf::18                       0                       # What write queue length does an incoming req see
system.mem_ctrl.wrQLenPdf::19                       0                       # What write queue length does an incoming req see
system.mem_ctrl.wrQLenPdf::20                       0                       # What write queue length does an incoming req see
system.mem_ctrl.wrQLenPdf::21                       0                       # What write queue length does an incoming req see
system.mem_ctrl.wrQLenPdf::22                       0                       # What write queue length does an incoming req see
system.mem_ctrl.wrQLenPdf::23                       0                       # What write queue length does an incoming req see
system.mem_ctrl.wrQLenPdf::24                       0                       # What write queue length does an incoming req see
system.mem_ctrl.wrQLenPdf::25                       0                       # What write queue length does an incoming req see
system.mem_ctrl.wrQLenPdf::26                       0                       # What write queue length does an incoming req see
system.mem_ctrl.wrQLenPdf::27                       0                       # What write queue length does an incoming req see
system.mem_ctrl.wrQLenPdf::28                       0                       # What write queue length does an incoming req see
system.mem_ctrl.wrQLenPdf::29                       0                       # What write queue length does an incoming req see
system.mem_ctrl.wrQLenPdf::30                       0                       # What write queue length does an incoming req see
system.mem_ctrl.wrQLenPdf::31                       0                       # What write queue length does an incoming req see
system.mem_ctrl.wrQLenPdf::32                       0                       # What write queue length does an incoming req see
system.mem_ctrl.wrQLenPdf::33                       0                       # What write queue length does an incoming req see
system.mem_ctrl.wrQLenPdf::34                       0                       # What write queue length does an incoming req see
system.mem_ctrl.wrQLenPdf::35                       0                       # What write queue length does an incoming req see
system.mem_ctrl.wrQLenPdf::36                       0                       # What write queue length does an incoming req see
system.mem_ctrl.wrQLenPdf::37                       0                       # What write queue length does an incoming req see
system.mem_ctrl.wrQLenPdf::38                       0                       # What write queue length does an incoming req see
system.mem_ctrl.wrQLenPdf::39                       0                       # What write queue length does an incoming req see
system.mem_ctrl.wrQLenPdf::40                       0                       # What write queue length does an incoming req see
system.mem_ctrl.wrQLenPdf::41                       0                       # What write queue length does an incoming req see
system.mem_ctrl.wrQLenPdf::42                       0                       # What write queue length does an incoming req see
system.mem_ctrl.wrQLenPdf::43                       0                       # What write queue length does an incoming req see
system.mem_ctrl.wrQLenPdf::44                       0                       # What write queue length does an incoming req see
system.mem_ctrl.wrQLenPdf::45                       0                       # What write queue length does an incoming req see
system.mem_ctrl.wrQLenPdf::46                       0                       # What write queue length does an incoming req see
system.mem_ctrl.wrQLenPdf::47                       0                       # What write queue length does an incoming req see
system.mem_ctrl.wrQLenPdf::48                       0                       # What write queue length does an incoming req see
system.mem_ctrl.wrQLenPdf::49                       0                       # What write queue length does an incoming req see
system.mem_ctrl.wrQLenPdf::50                       0                       # What write queue length does an incoming req see
system.mem_ctrl.wrQLenPdf::51                       0                       # What write queue length does an incoming req see
system.mem_ctrl.wrQLenPdf::52                       0                       # What write queue length does an incoming req see
system.mem_ctrl.wrQLenPdf::53                       0                       # What write queue length does an incoming req see
system.mem_ctrl.wrQLenPdf::54                       0                       # What write queue length does an incoming req see
system.mem_ctrl.wrQLenPdf::55                       0                       # What write queue length does an incoming req see
system.mem_ctrl.wrQLenPdf::56                       0                       # What write queue length does an incoming req see
system.mem_ctrl.wrQLenPdf::57                       0                       # What write queue length does an incoming req see
system.mem_ctrl.wrQLenPdf::58                       0                       # What write queue length does an incoming req see
system.mem_ctrl.wrQLenPdf::59                       0                       # What write queue length does an incoming req see
system.mem_ctrl.wrQLenPdf::60                       0                       # What write queue length does an incoming req see
system.mem_ctrl.wrQLenPdf::61                       0                       # What write queue length does an incoming req see
system.mem_ctrl.wrQLenPdf::62                       0                       # What write queue length does an incoming req see
system.mem_ctrl.wrQLenPdf::63                       0                       # What write queue length does an incoming req see
system.mem_ctrl.bytesPerActivate::samples         7903                       # Bytes accessed per row activation
system.mem_ctrl.bytesPerActivate::mean     812.151335                       # Bytes accessed per row activation
system.mem_ctrl.bytesPerActivate::gmean    664.028068                       # Bytes accessed per row activation
system.mem_ctrl.bytesPerActivate::stdev    345.996138                       # Bytes accessed per row activation
system.mem_ctrl.bytesPerActivate::0-127           267      3.38%      3.38% # Bytes accessed per row activation
system.mem_ctrl.bytesPerActivate::128-255          968     12.25%     15.63% # Bytes accessed per row activation
system.mem_ctrl.bytesPerActivate::256-383          288      3.64%     19.27% # Bytes accessed per row activation
system.mem_ctrl.bytesPerActivate::384-511          268      3.39%     22.66% # Bytes accessed per row activation
system.mem_ctrl.bytesPerActivate::512-639          135      1.71%     24.37% # Bytes accessed per row activation
system.mem_ctrl.bytesPerActivate::640-767          129      1.63%     26.00% # Bytes accessed per row activation
system.mem_ctrl.bytesPerActivate::768-895          256      3.24%     29.24% # Bytes accessed per row activation
system.mem_ctrl.bytesPerActivate::896-1023          251      3.18%     32.42% # Bytes accessed per row activation
system.mem_ctrl.bytesPerActivate::1024-1151         5341     67.58%    100.00% # Bytes accessed per row activation
system.mem_ctrl.bytesPerActivate::total          7903                       # Bytes accessed per row activation
system.mem_ctrl.bytesReadDRAM                 6418944                       # Total number of bytes read from DRAM
system.mem_ctrl.bytesReadWrQ                        0                       # Total number of bytes read from write queue
system.mem_ctrl.bytesWritten                        0                       # Total number of bytes written to DRAM
system.mem_ctrl.bytesReadSys                  6418944                       # Total read bytes from the system interface side
system.mem_ctrl.bytesWrittenSys                     0                       # Total written bytes from the system interface side
system.mem_ctrl.avgRdBW                        542.31                       # Average DRAM read bandwidth in MiByte/s
system.mem_ctrl.avgWrBW                          0.00                       # Average achieved write bandwidth in MiByte/s
system.mem_ctrl.avgRdBWSys                     542.31                       # Average system read bandwidth in MiByte/s
system.mem_ctrl.avgWrBWSys                       0.00                       # Average system write bandwidth in MiByte/s
system.mem_ctrl.peakBW                       12800.00                       # Theoretical peak bandwidth in MiByte/s
system.mem_ctrl.busUtil                          4.24                       # Data bus utilization in percentage
system.mem_ctrl.busUtilRead                      4.24                       # Data bus utilization in percentage for reads
system.mem_ctrl.busUtilWrite                     0.00                       # Data bus utilization in percentage for writes
system.mem_ctrl.totGap                    11836168000                       # Total gap between requests
system.mem_ctrl.avgGap                      118012.36                       # Average gap between requests
system.mem_ctrl.masterReadBytes::.cpu.inst        48000                       # Per-master bytes read from memory
system.mem_ctrl.masterReadBytes::.cpu.data      6370944                       # Per-master bytes read from memory
system.mem_ctrl.masterReadRate::.cpu.inst 4055313.119174500462                       # Per-master bytes read from memory rate (Bytes/sec)
system.mem_ctrl.masterReadRate::.cpu.data 538253599.681793093681                       # Per-master bytes read from memory rate (Bytes/sec)
system.mem_ctrl.masterReadAccesses::.cpu.inst          750                       # Per-master read serviced memory accesses
system.mem_ctrl.masterReadAccesses::.cpu.data        99546                       # Per-master read serviced memory accesses
system.mem_ctrl.masterReadTotalLat::.cpu.inst     19451000                       # Per-master read total memory access latency
system.mem_ctrl.masterReadTotalLat::.cpu.data   2275463000                       # Per-master read total memory access latency
system.mem_ctrl.masterReadAvgLat::.cpu.inst     25934.67                       # Per-master read average memory access latency
system.mem_ctrl.masterReadAvgLat::.cpu.data     22858.41                       # Per-master read average memory access latency
system.mem_ctrl.pageHitRate                     92.12                       # Row buffer hit rate, read and write combined
system.mem_ctrl.rank1.actEnergy              27967380                       # Energy for activate commands per rank (pJ)
system.mem_ctrl.rank1.preEnergy              14865015                       # Energy for precharge commands per rank (pJ)
system.mem_ctrl.rank1.readEnergy            358699320                       # Energy for read commands per rank (pJ)
system.mem_ctrl.rank1.writeEnergy                   0                       # Energy for write commands per rank (pJ)
system.mem_ctrl.rank1.refreshEnergy      934252800.000000                       # Energy for refresh commands per rank (pJ)
system.mem_ctrl.rank1.actBackEnergy        2778475830                       # Energy for active background per rank (pJ)
system.mem_ctrl.rank1.preBackEnergy        2205379680                       # Energy for precharge background per rank (pJ)
system.mem_ctrl.rank1.actPowerDownEnergy            0                       # Energy for active power-down per rank (pJ)
system.mem_ctrl.rank1.prePowerDownEnergy            0                       # Energy for precharge power-down per rank (pJ)
system.mem_ctrl.rank1.selfRefreshEnergy             0                       # Energy for self refresh per rank (pJ)
system.mem_ctrl.rank1.totalEnergy          6319640025                       # Total energy per rank (pJ)
system.mem_ctrl.rank1.averagePower         533.919148                       # Core power per rank (mW)
system.mem_ctrl.rank1.totalIdleTime                 0                       # Total Idle time Per DRAM Rank
system.mem_ctrl.rank1.memoryStateTime::IDLE   5681927750                       # Time in different power states
system.mem_ctrl.rank1.memoryStateTime::REF    395200000                       # Time in different power states
system.mem_ctrl.rank1.memoryStateTime::SREF            0                       # Time in different power states
system.mem_ctrl.rank1.memoryStateTime::PRE_PDN            0                       # Time in different power states
system.mem_ctrl.rank1.memoryStateTime::ACT   5759196250                       # Time in different power states
system.mem_ctrl.rank1.memoryStateTime::ACT_PDN            0                       # Time in different power states
system.mem_ctrl.rank0.actEnergy              28467180                       # Energy for activate commands per rank (pJ)
system.mem_ctrl.rank0.preEnergy              15126870                       # Energy for precharge commands per rank (pJ)
system.mem_ctrl.rank0.readEnergy            357414120                       # Energy for read commands per rank (pJ)
system.mem_ctrl.rank0.writeEnergy                   0                       # Energy for write commands per rank (pJ)
system.mem_ctrl.rank0.refreshEnergy      934252800.000000                       # Energy for refresh commands per rank (pJ)
system.mem_ctrl.rank0.actBackEnergy        2766603870                       # Energy for active background per rank (pJ)
system.mem_ctrl.rank0.preBackEnergy        2215377120                       # Energy for precharge background per rank (pJ)
system.mem_ctrl.rank0.actPowerDownEnergy            0                       # Energy for active power-down per rank (pJ)
system.mem_ctrl.rank0.prePowerDownEnergy            0                       # Energy for precharge power-down per rank (pJ)
system.mem_ctrl.rank0.selfRefreshEnergy             0                       # Energy for self refresh per rank (pJ)
system.mem_ctrl.rank0.totalEnergy          6317241960                       # Total energy per rank (pJ)
system.mem_ctrl.rank0.averagePower         533.716546                       # Core power per rank (mW)
system.mem_ctrl.rank0.totalIdleTime                 0                       # Total Idle time Per DRAM Rank
system.mem_ctrl.rank0.memoryStateTime::IDLE   5708331500                       # Time in different power states
system.mem_ctrl.rank0.memoryStateTime::REF    395200000                       # Time in different power states
system.mem_ctrl.rank0.memoryStateTime::SREF            0                       # Time in different power states
system.mem_ctrl.rank0.memoryStateTime::PRE_PDN            0                       # Time in different power states
system.mem_ctrl.rank0.memoryStateTime::ACT   5732792500                       # Time in different power states
system.mem_ctrl.rank0.memoryStateTime::ACT_PDN            0                       # Time in different power states
system.mem_ctrl.power_state.pwrStateResidencyTicks::UNDEFINED  11836324000                       # Cumulative time (in ticks) in various power states
system.cache_medium.blocked_cycles::no_mshrs            0                       # number of cycles access was blocked
system.cache_medium.blocked_cycles::no_targets            0                       # number of cycles access was blocked
system.cache_medium.blocked::no_mshrs               0                       # number of cycles access was blocked
system.cache_medium.blocked::no_targets             0                       # number of cycles access was blocked
system.cache_medium.avg_blocked_cycles::no_mshrs          nan                       # average number of cycles each access was blocked
system.cache_medium.avg_blocked_cycles::no_targets          nan                       # average number of cycles each access was blocked
system.cache_medium.replacements                    0                       # number of replacements
system.cache_medium.power_state.pwrStateResidencyTicks::UNDEFINED  11836324000                       # Cumulative time (in ticks) in various power states
system.cache_medium.tags.tagsinuse                  0                       # Cycle average of tags in use
system.cache_medium.tags.total_refs                 0                       # Total number of references to valid blocks.
system.cache_medium.tags.sampled_refs               0                       # Sample count of references to valid blocks.
system.cache_medium.tags.avg_refs                 nan                       # Average number of references to valid blocks.
system.cache_medium.tags.warmup_cycle               0                       # Cycle when the warmup percentage was hit.
system.cache_medium.tags.tag_accesses               0                       # Number of tag accesses
system.cache_medium.tags.data_accesses              0                       # Number of data accesses
system.cache_medium.tags.power_state.pwrStateResidencyTicks::UNDEFINED  11836324000                       # Cumulative time (in ticks) in various power states
system.clk_domain.clock                          1000                       # Clock period in ticks
system.clk_domain.voltage_domain.voltage            1                       # Voltage in Volts
system.dcache.demand_hits::.cpu.data           712077                       # number of demand (read+write) hits
system.dcache.demand_hits::total               712077                       # number of demand (read+write) hits
system.dcache.overall_hits::.cpu.data          712077                       # number of overall hits
system.dcache.overall_hits::total              712077                       # number of overall hits
system.dcache.demand_misses::.cpu.data          99692                       # number of demand (read+write) misses
system.dcache.demand_misses::total              99692                       # number of demand (read+write) misses
system.dcache.overall_misses::.cpu.data         99692                       # number of overall misses
system.dcache.overall_misses::total             99692                       # number of overall misses
system.dcache.demand_miss_latency::.cpu.data   7281654000                       # number of demand (read+write) miss cycles
system.dcache.demand_miss_latency::total   7281654000                       # number of demand (read+write) miss cycles
system.dcache.overall_miss_latency::.cpu.data   7281654000                       # number of overall miss cycles
system.dcache.overall_miss_latency::total   7281654000                       # number of overall miss cycles
system.dcache.demand_accesses::.cpu.data       811769                       # number of demand (read+write) accesses
system.dcache.demand_accesses::total           811769                       # number of demand (read+write) accesses
system.dcache.overall_accesses::.cpu.data       811769                       # number of overall (read+write) accesses
system.dcache.overall_accesses::total          811769                       # number of overall (read+write) accesses
system.dcache.demand_miss_rate::.cpu.data     0.122808                       # miss rate for demand accesses
system.dcache.demand_miss_rate::total        0.122808                       # miss rate for demand accesses
system.dcache.overall_miss_rate::.cpu.data     0.122808                       # miss rate for overall accesses
system.dcache.overall_miss_rate::total       0.122808                       # miss rate for overall accesses
system.dcache.demand_avg_miss_latency::.cpu.data 73041.507844                       # average overall miss latency
system.dcache.demand_avg_miss_latency::total 73041.507844                       # average overall miss latency
system.dcache.overall_avg_miss_latency::.cpu.data 73041.507844                       # average overall miss latency
system.dcache.overall_avg_miss_latency::total 73041.507844                       # average overall miss latency
system.dcache.blocked_cycles::no_mshrs              0                       # number of cycles access was blocked
system.dcache.blocked_cycles::no_targets            0                       # number of cycles access was blocked
system.dcache.blocked::no_mshrs                     0                       # number of cycles access was blocked
system.dcache.blocked::no_targets                   0                       # number of cycles access was blocked
system.dcache.avg_blocked_cycles::no_mshrs          nan                       # average number of cycles each access was blocked
system.dcache.avg_blocked_cycles::no_targets          nan                       # average number of cycles each access was blocked
system.dcache.writebacks::.writebacks           99263                       # number of writebacks
system.dcache.writebacks::total                 99263                       # number of writebacks
system.dcache.demand_mshr_misses::.cpu.data        99692                       # number of demand (read+write) MSHR misses
system.dcache.demand_mshr_misses::total         99692                       # number of demand (read+write) MSHR misses
system.dcache.overall_mshr_misses::.cpu.data        99692                       # number of overall MSHR misses
system.dcache.overall_mshr_misses::total        99692                       # number of overall MSHR misses
system.dcache.demand_mshr_miss_latency::.cpu.data   7082272000                       # number of demand (read+write) MSHR miss cycles
system.dcache.demand_mshr_miss_latency::total   7082272000                       # number of demand (read+write) MSHR miss cycles
system.dcache.overall_mshr_miss_latency::.cpu.data   7082272000                       # number of overall MSHR miss cycles
system.dcache.overall_mshr_miss_latency::total   7082272000                       # number of overall MSHR miss cycles
system.dcache.demand_mshr_miss_rate::.cpu.data     0.122808                       # mshr miss rate for demand accesses
system.dcache.demand_mshr_miss_rate::total     0.122808                       # mshr miss rate for demand accesses
system.dcache.overall_mshr_miss_rate::.cpu.data     0.122808                       # mshr miss rate for overall accesses
system.dcache.overall_mshr_miss_rate::total     0.122808                       # mshr miss rate for overall accesses
system.dcache.demand_avg_mshr_miss_latency::.cpu.data 71041.527906                       # average overall mshr miss latency
system.dcache.demand_avg_mshr_miss_latency::total 71041.527906                       # average overall mshr miss latency
system.dcache.overall_avg_mshr_miss_latency::.cpu.data 71041.527906                       # average overall mshr miss latency
system.dcache.overall_avg_mshr_miss_latency::total 71041.527906                       # average overall mshr miss latency
system.dcache.replacements                      99435                       # number of replacements
system.dcache.ReadReq_hits::.cpu.data           10733                       # number of ReadReq hits
system.dcache.ReadReq_hits::total               10733                       # number of ReadReq hits
system.dcache.ReadReq_misses::.cpu.data           277                       # number of ReadReq misses
system.dcache.ReadReq_misses::total               277                       # number of ReadReq misses
system.dcache.ReadReq_miss_latency::.cpu.data     15449000                       # number of ReadReq miss cycles
system.dcache.ReadReq_miss_latency::total     15449000                       # number of ReadReq miss cycles
system.dcache.ReadReq_accesses::.cpu.data        11010                       # number of ReadReq accesses(hits+misses)
system.dcache.ReadReq_accesses::total           11010                       # number of ReadReq accesses(hits+misses)
system.dcache.ReadReq_miss_rate::.cpu.data     0.025159                       # miss rate for ReadReq accesses
system.dcache.ReadReq_miss_rate::total       0.025159                       # miss rate for ReadReq accesses
system.dcache.ReadReq_avg_miss_latency::.cpu.data 55772.563177                       # average ReadReq miss latency
system.dcache.ReadReq_avg_miss_latency::total 55772.563177                       # average ReadReq miss latency
system.dcache.ReadReq_mshr_misses::.cpu.data          277                       # number of ReadReq MSHR misses
system.dcache.ReadReq_mshr_misses::total          277                       # number of ReadReq MSHR misses
system.dcache.ReadReq_mshr_miss_latency::.cpu.data     14895000                       # number of ReadReq MSHR miss cycles
system.dcache.ReadReq_mshr_miss_latency::total     14895000                       # number of ReadReq MSHR miss cycles
system.dcache.ReadReq_mshr_miss_rate::.cpu.data     0.025159                       # mshr miss rate for ReadReq accesses
system.dcache.ReadReq_mshr_miss_rate::total     0.025159                       # mshr miss rate for ReadReq accesses
system.dcache.ReadReq_avg_mshr_miss_latency::.cpu.data 53772.563177                       # average ReadReq mshr miss latency
system.dcache.ReadReq_avg_mshr_miss_latency::total 53772.563177                       # average ReadReq mshr miss latency
system.dcache.WriteReq_hits::.cpu.data         701344                       # number of WriteReq hits
system.dcache.WriteReq_hits::total             701344                       # number of WriteReq hits
system.dcache.WriteReq_misses::.cpu.data        99415                       # number of WriteReq misses
system.dcache.WriteReq_misses::total            99415                       # number of WriteReq misses
system.dcache.WriteReq_miss_latency::.cpu.data   7266205000                       # number of WriteReq miss cycles
system.dcache.WriteReq_miss_latency::total   7266205000                       # number of WriteReq miss cycles
system.dcache.WriteReq_accesses::.cpu.data       800759                       # number of WriteReq accesses(hits+misses)
[...]
system.dcache.tags.occ_percent::total        0.998697                       # Average percentage of cache occupancy
system.dcache.tags.occ_task_id_blocks::1024          256                       # Occupied blocks per task id
system.dcache.tags.age_task_id_blocks_1024::0           81                       # Occupied blocks per task id
system.dcache.tags.age_task_id_blocks_1024::1          175                       # Occupied blocks per task id
system.dcache.tags.occ_task_id_percent::1024            1                       # Percentage of cache occupancy per task id
system.dcache.tags.tag_accesses               6536450                       # Number of tag accesses
system.dcache.tags.data_accesses              6536450                       # Number of data accesses
system.dcache.tags.power_state.pwrStateResidencyTicks::UNDEFINED  88923418000                       # Cumulative time (in ticks) in various power states
system.cache_large.blocked_cycles::no_mshrs            0                       # number of cycles access was blocked
system.cache_large.blocked_cycles::no_targets            0                       # number of cycles access was blocked
system.cache_large.blocked::no_mshrs                0                       # number of cycles access was blocked
system.cache_large.blocked::no_targets              0                       # number of cycles access was blocked
system.cache_large.avg_blocked_cycles::no_mshrs          nan                       # average number of cycles each access was blocked
system.cache_large.avg_blocked_cycles::no_targets          nan                       # average number of cycles each access was blocked
system.cache_large.replacements                     0                       # number of replacements
system.cache_large.power_state.pwrStateResidencyTicks::UNDEFINED  88923418000                       # Cumulative time (in ticks) in various power states
system.cache_large.tags.tagsinuse                   0                       # Cycle average of tags in use
system.cache_large.tags.total_refs                  0                       # Total number of references to valid blocks.
system.cache_large.tags.sampled_refs                0                       # Sample count of references to valid blocks.
system.cache_large.tags.avg_refs                  nan                       # Average number of references to valid blocks.
system.cache_large.tags.warmup_cycle                0                       # Cycle when the warmup percentage was hit.
system.cache_large.tags.tag_accesses                0                       # Number of tag accesses
system.cache_large.tags.data_accesses               0                       # Number of data accesses
system.cache_large.tags.power_state.pwrStateResidencyTicks::UNDEFINED  88923418000                       # Cumulative time (in ticks) in various power states
system.l2cache.demand_hits::.cpu.inst              70                       # number of demand (read+write) hits
system.l2cache.demand_hits::.cpu.data             127                       # number of demand (read+write) hits
system.l2cache.demand_hits::total                 197                       # number of demand (read+write) hits
system.l2cache.overall_hits::.cpu.inst             70                       # number of overall hits
system.l2cache.overall_hits::.cpu.data            127                       # number of overall hits
system.l2cache.overall_hits::total                197                       # number of overall hits
system.l2cache.demand_misses::.cpu.inst           889                       # number of demand (read+write) misses
system.l2cache.demand_misses::.cpu.data        724564                       # number of demand (read+write) misses
system.l2cache.demand_misses::total            725453                       # number of demand (read+write) misses
system.l2cache.overall_misses::.cpu.inst          889                       # number of overall misses
system.l2cache.overall_misses::.cpu.data       724564                       # number of overall misses
system.l2cache.overall_misses::total           725453                       # number of overall misses
system.l2cache.demand_miss_latency::.cpu.inst     54513000                       # number of demand (read+write) miss cycles
system.l2cache.demand_miss_latency::.cpu.data  52710929000                       # number of demand (read+write) miss cycles
system.l2cache.demand_miss_latency::total  52765442000                       # number of demand (read+write) miss cycles
system.l2cache.overall_miss_latency::.cpu.inst     54513000                       # number of overall miss cycles
system.l2cache.overall_miss_latency::.cpu.data  52710929000                       # number of overall miss cycles
system.l2cache.overall_miss_latency::total  52765442000                       # number of overall miss cycles
system.l2cache.demand_accesses::.cpu.inst          959                       # number of demand (read+write) accesses
system.l2cache.demand_accesses::.cpu.data       724691                       # number of demand (read+write) accesses
system.l2cache.demand_accesses::total          725650                       # number of demand (read+write) accesses
system.l2cache.overall_accesses::.cpu.inst          959                       # number of overall (read+write) accesses
system.l2cache.overall_accesses::.cpu.data       724691                       # number of overall (read+write) accesses
system.l2cache.overall_accesses::total         725650                       # number of overall (read+write) accesses
system.l2cache.demand_miss_rate::.cpu.inst     0.927007                       # miss rate for demand accesses
system.l2cache.demand_miss_rate::.cpu.data     0.999825                       # miss rate for demand accesses
system.l2cache.demand_miss_rate::total       0.999729                       # miss rate for demand accesses
system.l2cache.overall_miss_rate::.cpu.inst     0.927007                       # miss rate for overall accesses
system.l2cache.overall_miss_rate::.cpu.data     0.999825                       # miss rate for overall accesses
system.l2cache.overall_miss_rate::total      0.999729                       # miss rate for overall accesses
system.l2cache.demand_avg_miss_latency::.cpu.inst 61319.460067                       # average overall miss latency
system.l2cache.demand_avg_miss_latency::.cpu.data 72748.479085                       # average overall miss latency
system.l2cache.demand_avg_miss_latency::total 72734.473494                       # average overall miss latency
system.l2cache.overall_avg_miss_latency::.cpu.inst 61319.460067                       # average overall miss latency
system.l2cache.overall_avg_miss_latency::.cpu.data 72748.479085                       # average overall miss latency
system.l2cache.overall_avg_miss_latency::total 72734.473494                       # average overall miss latency
system.l2cache.blocked_cycles::no_mshrs             0                       # number of cycles access was blocked
system.l2cache.blocked_cycles::no_targets            0                       # number of cycles access was blocked
system.l2cache.blocked::no_mshrs                    0                       # number of cycles access was blocked
system.l2cache.blocked::no_targets                  0                       # number of cycles access was blocked
system.l2cache.avg_blocked_cycles::no_mshrs          nan                       # average number of cycles each access was blocked
system.l2cache.avg_blocked_cycles::no_targets          nan                       # average number of cycles each access was blocked
system.l2cache.writebacks::.writebacks         723974                       # number of writebacks
system.l2cache.writebacks::total               723974                       # number of writebacks
system.l2cache.demand_mshr_misses::.cpu.inst          889                       # number of demand (read+write) MSHR misses
system.l2cache.demand_mshr_misses::.cpu.data       724564                       # number of demand (read+write) MSHR misses
system.l2cache.demand_mshr_misses::total       725453                       # number of demand (read+write) MSHR misses
system.l2cache.overall_mshr_misses::.cpu.inst          889                       # number of overall MSHR misses
system.l2cache.overall_mshr_misses::.cpu.data       724564                       # number of overall MSHR misses
system.l2cache.overall_mshr_misses::total       725453                       # number of overall MSHR misses
system.l2cache.demand_mshr_miss_latency::.cpu.inst     52735000                       # number of demand (read+write) MSHR miss cycles
system.l2cache.demand_mshr_miss_latency::.cpu.data  51261801000                       # number of demand (read+write) MSHR miss cycles
system.l2cache.demand_mshr_miss_latency::total  51314536000                       # number of demand (read+write) MSHR miss cycles
system.l2cache.overall_mshr_miss_latency::.cpu.inst     52735000                       # number of overall MSHR miss cycles
system.l2cache.overall_mshr_miss_latency::.cpu.data  51261801000                       # number of overall MSHR miss cycles
system.l2cache.overall_mshr_miss_latency::total  51314536000                       # number of overall MSHR miss cycles
system.l2cache.demand_mshr_miss_rate::.cpu.inst     0.927007                       # mshr miss rate for demand accesses
system.l2cache.demand_mshr_miss_rate::.cpu.data     0.999825                       # mshr miss rate for demand accesses
system.l2cache.demand_mshr_miss_rate::total     0.999729                       # mshr miss rate for demand accesses
system.l2cache.overall_mshr_miss_rate::.cpu.inst     0.927007                       # mshr miss rate for overall accesses
system.l2cache.overall_mshr_miss_rate::.cpu.data     0.999825                       # mshr miss rate for overall accesses
system.l2cache.overall_mshr_miss_rate::total     0.999729                       # mshr miss rate for overall accesses
system.l2cache.demand_avg_mshr_miss_latency::.cpu.inst 59319.460067                       # average overall mshr miss latency
system.l2cache.demand_avg_mshr_miss_latency::.cpu.data 70748.479085                       # average overall mshr miss latency
system.l2cache.demand_avg_mshr_miss_latency::total 70734.473494                       # average overall mshr miss latency
system.l2cache.overall_avg_mshr_miss_latency::.cpu.inst 59319.460067                       # average overall mshr miss latency
system.l2cache.overall_avg_mshr_miss_latency::.cpu.data 70748.479085                       # average overall mshr miss latency
system.l2cache.overall_avg_mshr_miss_latency::total 70734.473494                       # average overall mshr miss latency
system.l2cache.replacements                    725178                       # number of replacements
system.l2cache.ReadReq_hits::.cpu.inst             70                       # number of ReadReq hits
system.l2cache.ReadReq_hits::.cpu.data            127                       # number of ReadReq hits
system.l2cache.ReadReq_hits::total                197                       # number of ReadReq hits
system.l2cache.ReadReq_misses::.cpu.inst          889                       # number of ReadReq misses
system.l2cache.ReadReq_misses::.cpu.data       724564                       # number of ReadReq misses
system.l2cache.ReadReq_misses::total           725453                       # number of ReadReq misses
system.l2cache.ReadReq_miss_latency::.cpu.inst     54513000                       # number of ReadReq miss cycles
system.l2cache.ReadReq_miss_latency::.cpu.data  52710929000                       # number of ReadReq miss cycles
system.l2cache.ReadReq_miss_latency::total  52765442000                       # number of ReadReq miss cycles
system.l2cache.ReadReq_accesses::.cpu.inst          959                       # number of ReadReq accesses(hits+misses)
system.l2cache.ReadReq_accesses::.cpu.data       724691                       # number of ReadReq accesses(hits+misses)
system.l2cache.ReadReq_accesses::total         725650                       # number of ReadReq accesses(hits+misses)
system.l2cache.ReadReq_miss_rate::.cpu.inst     0.927007                       # miss rate for ReadReq accesses
system.l2cache.ReadReq_miss_rate::.cpu.data     0.999825                       # miss rate for ReadReq accesses
system.l2cache.ReadReq_miss_rate::total      0.999729                       # miss rate for ReadReq accesses
system.l2cache.ReadReq_avg_miss_latency::.cpu.inst 61319.460067                       # average ReadReq miss latency
system.l2cache.ReadReq_avg_miss_latency::.cpu.data 72748.479085                       # average ReadReq miss latency
system.l2cache.ReadReq_avg_miss_latency::total 72734.473494                       # average ReadReq miss latency
system.l2cache.ReadReq_mshr_misses::.cpu.inst          889                       # number of ReadReq MSHR misses
system.l2cache.ReadReq_mshr_misses::.cpu.data       724564                       # number of ReadReq MSHR misses
system.l2cache.ReadReq_mshr_misses::total       725453                       # number of ReadReq MSHR misses
system.l2cache.ReadReq_mshr_miss_latency::.cpu.inst     52735000                       # number of ReadReq MSHR miss cycles
system.l2cache.ReadReq_mshr_miss_latency::.cpu.data  51261801000                       # number of ReadReq MSHR miss cycles
system.l2cache.ReadReq_mshr_miss_latency::total  51314536000                       # number of ReadReq MSHR miss cycles
system.l2cache.ReadReq_mshr_miss_rate::.cpu.inst     0.927007                       # mshr miss rate for ReadReq accesses
system.l2cache.ReadReq_mshr_miss_rate::.cpu.data     0.999825                       # mshr miss rate for ReadReq accesses
system.l2cache.ReadReq_mshr_miss_rate::total     0.999729                       # mshr miss rate for ReadReq accesses
system.l2cache.ReadReq_avg_mshr_miss_latency::.cpu.inst 59319.460067                       # average ReadReq mshr miss latency
system.l2cache.ReadReq_avg_mshr_miss_latency::.cpu.data 70748.479085                       # average ReadReq mshr miss latency
system.l2cache.ReadReq_avg_mshr_miss_latency::total 70734.473494                       # average ReadReq mshr miss latency
system.l2cache.WritebackDirty_hits::.writebacks       724263                       # number of WritebackDirty hits
system.l2cache.WritebackDirty_hits::total       724263                       # number of WritebackDirty hits
system.l2cache.WritebackDirty_accesses::.writebacks       724263                       # number of WritebackDirty accesses(hits+misses)
system.l2cache.WritebackDirty_accesses::total       724263                       # number of WritebackDirty accesses(hits+misses)
system.l2cache.power_state.pwrStateResidencyTicks::UNDEFINED  88923418000                       # Cumulative time (in ticks) in various power states
system.l2cache.tags.tagsinuse              511.556272                       # Cycle average of tags in use
system.l2cache.tags.total_refs                1449913                       # Total number of references to valid blocks.
system.l2cache.tags.sampled_refs               725690                       # Sample count of references to valid blocks.
system.l2cache.tags.avg_refs                 1.997978                       # Average number of references to valid blocks.
system.l2cache.tags.warmup_cycle                78000                       # Cycle when the warmup percentage was hit.
system.l2cache.tags.occ_blocks::.writebacks     0.117720                       # Average occupied blocks per requestor
system.l2cache.tags.occ_blocks::.cpu.inst     0.715752                       # Average occupied blocks per requestor
system.l2cache.tags.occ_blocks::.cpu.data   510.722800                       # Average occupied blocks per requestor
system.l2cache.tags.occ_percent::.writebacks     0.000230                       # Average percentage of cache occupancy
system.l2cache.tags.occ_percent::.cpu.inst     0.001398                       # Average percentage of cache occupancy
system.l2cache.tags.occ_percent::.cpu.data     0.997505                       # Average percentage of cache occupancy
system.l2cache.tags.occ_percent::total       0.999133                       # Average percentage of cache occupancy
system.l2cache.tags.occ_task_id_blocks::1024          512                       # Occupied blocks per task id
system.l2cache.tags.age_task_id_blocks_1024::0           81                       # Occupied blocks per task id
system.l2cache.tags.age_task_id_blocks_1024::1          431                       # Occupied blocks per task id
system.l2cache.tags.occ_task_id_percent::1024            1                       # Percentage of cache occupancy per task id
system.l2cache.tags.tag_accesses              2175603                       # Number of tag accesses
system.l2cache.tags.data_accesses             2175603                       # Number of data accesses
system.l2cache.tags.power_state.pwrStateResidencyTicks::UNDEFINED  88923418000                       # Cumulative time (in ticks) in various power states
system.l2bar.trans_dist::ReadReq               725650                       # Transaction distribution
system.l2bar.trans_dist::ReadResp              725650                       # Transaction distribution
system.l2bar.trans_dist::WritebackDirty        724263                       # Transaction distribution
system.l2bar.pkt_count_system.dcache.mem_side::system.l2cache.cpu_side      2173645                       # Packet count per connected master and slave (bytes)
system.l2bar.pkt_count_system.icache.mem_side::system.l2cache.cpu_side         1918                       # Packet count per connected master and slave (bytes)
system.l2bar.pkt_count::total                 2175563                       # Packet count per connected master and slave (bytes)
system.l2bar.pkt_size_system.dcache.mem_side::system.l2cache.cpu_side     92733056                       # Cumulative packet size per connected master and slave (bytes)
system.l2bar.pkt_size_system.icache.mem_side::system.l2cache.cpu_side        61376                       # Cumulative packet size per connected master and slave (bytes)
system.l2bar.pkt_size::total                 92794432                       # Cumulative packet size per connected master and slave (bytes)
system.l2bar.respLayer1.occupancy             4795000                       # Layer occupancy (ticks)
system.l2bar.respLayer1.utilization               0.0                       # Layer utilization (%)
system.l2bar.reqLayer0.occupancy           4346965000                       # Layer occupancy (ticks)
system.l2bar.reqLayer0.utilization                4.9                       # Layer utilization (%)
system.l2bar.respLayer0.occupancy          3623455000                       # Layer occupancy (ticks)
system.l2bar.respLayer0.utilization               4.1                       # Layer utilization (%)
system.l2bar.power_state.pwrStateResidencyTicks::UNDEFINED  88923418000                       # Cumulative time (in ticks) in various power states
system.cpu.dtb.walker.power_state.pwrStateResidencyTicks::UNDEFINED  88923418000                       # Cumulative time (in ticks) in various power states
system.cpu.interrupts.clk_domain.clock          16000                       # Clock period in ticks
system.cpu.itb.walker.power_state.pwrStateResidencyTicks::UNDEFINED  88923418000                       # Cumulative time (in ticks) in various power states
system.cpu.power_state.numTransitions               1                       # Number of power state transitions
system.cpu.power_state.pwrStateResidencyTicks::ON  88923418000                       # Cumulative time (in ticks) in various power states

---------- End Simulation Statistics   ----------
