
---------- Begin Simulation Statistics ----------
final_tick                               251581525000                       # Number of ticks from beginning of simulation (restored from checkpoints and never reset)
host_inst_rate                                 193823                       # Simulator instruction rate (inst/s)
host_mem_usage                                 732304                       # Number of bytes of host memory used
host_op_rate                                   344219                       # Simulator op (including micro ops) rate (op/s)
host_seconds                                    15.48                       # Real time elapsed on the host
host_tick_rate                            16253903168                       # Simulator tick rate (ticks/s)
sim_freq                                 1000000000000                       # Frequency of simulated ticks
sim_insts                                     3000000                       # Number of instructions simulated
sim_ops                                       5327884                       # Number of ops (including micro ops) simulated
sim_seconds                                  0.251582                       # Number of seconds simulated
sim_ticks                                251581525000                       # Number of ticks simulated
system.cachebus.snoop_filter.hit_multi_requests            0                       # Number of requests hitting in the snoop filter with multiple (>1) holders of the requested data.
system.cachebus.snoop_filter.hit_multi_snoops            0                       # Number of snoops hitting in the snoop filter with multiple (>1) holders of the requested data.
system.cachebus.snoop_filter.hit_single_requests            0                       # Number of requests hitting in the snoop filter with a single holder of the requested data.
system.cachebus.snoop_filter.hit_single_snoops            0                       # Number of snoops hitting in the snoop filter with a single holder of the requested data.
system.cachebus.snoop_filter.tot_requests            0                       # Total number of requests made to the snoop filter.
system.cachebus.snoop_filter.tot_snoops             0                       # Total number of snoops made to the snoop filter.
system.cpu.Branches                            571741                       # Number of branches fetched
system.cpu.committedInsts                     3000000                       # Number of instructions committed
system.cpu.committedOps                       5327884                       # Number of ops (including micro ops) committed
system.cpu.dtb.rdAccesses                      652188                       # TLB accesses on read requests
system.cpu.dtb.rdMisses                           136                       # TLB misses on read requests
system.cpu.dtb.wrAccesses                      459451                       # TLB accesses on write requests
system.cpu.dtb.wrMisses                           124                       # TLB misses on write requests
system.cpu.idle_fraction                            0                       # Percentage of idle cycles
system.cpu.itb.rdAccesses                           0                       # TLB accesses on read requests
system.cpu.itb.rdMisses                             0                       # TLB misses on read requests
system.cpu.itb.wrAccesses                     3982647                       # TLB accesses on write requests
system.cpu.itb.wrMisses                           252                       # TLB misses on write requests
system.cpu.not_idle_fraction                        1                       # Percentage of non-idle cycles
system.cpu.numCycles                        251581525                       # number of cpu cycles simulated
system.cpu.numWorkItemsCompleted                    0                       # number of work items this cpu completed
system.cpu.numWorkItemsStarted                      0                       # number of work items this cpu started
system.cpu.num_busy_cycles                  251581525                       # Number of busy cycles
system.cpu.num_cc_register_reads              2769570                       # number of times the CC registers were read
system.cpu.num_cc_register_writes             1764646                       # number of times the CC registers were written
system.cpu.num_conditional_control_insts       422933                       # number of instructions that are conditional controls
system.cpu.num_fp_alu_accesses                 276601                       # Number of float alu accesses
system.cpu.num_fp_insts                        276601                       # number of float instructions
system.cpu.num_fp_register_reads               508238                       # number of times the floating registers were read
system.cpu.num_fp_register_writes              238580                       # number of times the floating registers were written
system.cpu.num_func_calls                       88305                       # number of times a function call or return occured
system.cpu.num_idle_cycles                          0                       # Number of idle cycles
system.cpu.num_int_alu_accesses               5116244                       # Number of integer alu accesses
system.cpu.num_int_insts                      5116244                       # number of integer instructions
system.cpu.num_int_register_reads            10136769                       # number of times the integer registers were read
system.cpu.num_int_register_writes            4060214                       # number of times the integer registers were written
system.cpu.num_load_insts                      652020                       # Number of load instructions
system.cpu.num_mem_refs                       1111454                       # number of memory refs
system.cpu.num_store_insts                     459434                       # Number of store instructions
system.cpu.num_vec_alu_accesses                     0                       # Number of vector alu accesses
system.cpu.num_vec_insts                            0                       # number of vector instructions
system.cpu.num_vec_register_reads                   0                       # number of times the vector registers were read
system.cpu.num_vec_register_writes                  0                       # number of times the vector registers were written
system.cpu.op_class::No_OpClass                 11420      0.21%      0.21% # Class of executed instruction
system.cpu.op_class::IntAlu                   4010572     75.27%     75.49% # Class of executed instruction
system.cpu.op_class::IntMult                    17688      0.33%     75.82% # Class of executed instruction
system.cpu.op_class::IntDiv                       175      0.00%     75.82% # Class of executed instruction
system.cpu.op_class::FloatAdd                   12161      0.23%     76.05% # Class of executed instruction
system.cpu.op_class::FloatCmp                       0      0.00%     76.05% # Class of executed instruction
system.cpu.op_class::FloatCvt                       0      0.00%     76.05% # Class of executed instruction
system.cpu.op_class::FloatMult                      0      0.00%     76.05% # Class of executed instruction
system.cpu.op_class::FloatMultAcc                   0      0.00%     76.05% # Class of executed instruction
system.cpu.op_class::FloatDiv                       0      0.00%     76.05% # Class of executed instruction
system.cpu.op_class::FloatMisc                      0      0.00%     76.05% # Class of executed instruction
system.cpu.op_class::FloatSqrt                      0      0.00%     76.05% # Class of executed instruction
system.cpu.op_class::SimdAdd                      484      0.01%     76.06% # Class of executed instruction
system.cpu.op_class::SimdAddAcc                     0      0.00%     76.06% # Class of executed instruction
system.cpu.op_class::SimdAlu                    18676      0.35%     76.41% # Class of executed instruction
system.cpu.op_class::SimdCmp                      618      0.01%     76.42% # Class of executed instruction
system.cpu.op_class::SimdCvt                     6304      0.12%     76.54% # Class of executed instruction
system.cpu.op_class::SimdMisc                   24934      0.47%     77.01% # Class of executed instruction
system.cpu.op_class::SimdMult                       0      0.00%     77.01% # Class of executed instruction
system.cpu.op_class::SimdMultAcc                    0      0.00%     77.01% # Class of executed instruction
system.cpu.op_class::SimdShift                    141      0.00%     77.01% # Class of executed instruction
system.cpu.op_class::SimdShiftAcc                   0      0.00%     77.01% # Class of executed instruction
system.cpu.op_class::SimdDiv                        0      0.00%     77.01% # Class of executed instruction
system.cpu.op_class::SimdSqrt                       0      0.00%     77.01% # Class of executed instruction
system.cpu.op_class::SimdFloatAdd               33653      0.63%     77.64% # Class of executed instruction
system.cpu.op_class::SimdFloatAlu                   0      0.00%     77.64% # Class of executed instruction
system.cpu.op_class::SimdFloatCmp                 372      0.01%     77.65% # Class of executed instruction
system.cpu.op_class::SimdFloatCvt               24481      0.46%     78.11% # Class of executed instruction
system.cpu.op_class::SimdFloatDiv                3131      0.06%     78.17% # Class of executed instruction
system.cpu.op_class::SimdFloatMisc                  0      0.00%     78.17% # Class of executed instruction
system.cpu.op_class::SimdFloatMult              49569      0.93%     79.10% # Class of executed instruction
system.cpu.op_class::SimdFloatMultAcc               0      0.00%     79.10% # Class of executed instruction
system.cpu.op_class::SimdFloatSqrt               2094      0.04%     79.14% # Class of executed instruction
system.cpu.op_class::SimdReduceAdd                  0      0.00%     79.14% # Class of executed instruction
system.cpu.op_class::SimdReduceAlu                  0      0.00%     79.14% # Class of executed instruction
system.cpu.op_class::SimdReduceCmp                  0      0.00%     79.14% # Class of executed instruction
system.cpu.op_class::SimdFloatReduceAdd             0      0.00%     79.14% # Class of executed instruction
system.cpu.op_class::SimdFloatReduceCmp             0      0.00%     79.14% # Class of executed instruction
system.cpu.op_class::SimdAes                        0      0.00%     79.14% # Class of executed instruction
system.cpu.op_class::SimdAesMix                     0      0.00%     79.14% # Class of executed instruction
system.cpu.op_class::SimdSha1Hash                   0      0.00%     79.14% # Class of executed instruction
system.cpu.op_class::SimdSha1Hash2                  0      0.00%     79.14% # Class of executed instruction
system.cpu.op_class::SimdSha256Hash                 0      0.00%     79.14% # Class of executed instruction
system.cpu.op_class::SimdSha256Hash2                0      0.00%     79.14% # Class of executed instruction
system.cpu.op_class::SimdShaSigma2                  0      0.00%     79.14% # Class of executed instruction
system.cpu.op_class::SimdShaSigma3                  0      0.00%     79.14% # Class of executed instruction
system.cpu.op_class::SimdPredAlu                    0      0.00%     79.14% # Class of executed instruction
system.cpu.op_class::MemRead                   614575     11.53%     90.67% # Class of executed instruction
system.cpu.op_class::MemWrite                  441545      8.29%     98.96% # Class of executed instruction
system.cpu.op_class::FloatMemRead               37445      0.70%     99.66% # Class of executed instruction
system.cpu.op_class::FloatMemWrite              17889      0.34%    100.00% # Class of executed instruction
system.cpu.op_class::IprAccess                      0      0.00%    100.00% # Class of executed instruction
system.cpu.op_class::InstPrefetch                   0      0.00%    100.00% # Class of executed instruction
system.cpu.op_class::total                    5327927                       # Class of executed instruction
system.cpu.workload.numSyscalls                    48                       # Number of system calls
system.membus.snoop_filter.hit_multi_requests            0                       # Number of requests hitting in the snoop filter with multiple (>1) holders of the requested data.
system.membus.snoop_filter.hit_multi_snoops            0                       # Number of snoops hitting in the snoop filter with multiple (>1) holders of the requested data.
system.membus.snoop_filter.hit_single_requests            0                       # Number of requests hitting in the snoop filter with a single holder of the requested data.
system.membus.snoop_filter.hit_single_snoops            0                       # Number of snoops hitting in the snoop filter with a single holder of the requested data.
system.membus.snoop_filter.tot_requests             0                       # Total number of requests made to the snoop filter.
system.membus.snoop_filter.tot_snoops               0                       # Total number of snoops made to the snoop filter.
system.membus.trans_dist::ReadReq             4624998                       # Transaction distribution
system.membus.trans_dist::ReadResp            4624998                       # Transaction distribution
system.membus.trans_dist::WriteReq             459412                       # Transaction distribution
system.membus.trans_dist::WriteResp            459411                       # Transaction distribution
system.membus.trans_dist::SoftPFReq              9833                       # Transaction distribution
system.membus.trans_dist::SoftPFResp             9833                       # Transaction distribution
system.membus.pkt_count_system.cpu.icache_port::system.mem_ctrl.port      7965294                       # Packet count per connected master and slave (bytes)
system.membus.pkt_count_system.cpu.icache_port::total      7965294                       # Packet count per connected master and slave (bytes)
system.membus.pkt_count_system.memobj.mem_side::system.mem_ctrl.port      2223191                       # Packet count per connected master and slave (bytes)
system.membus.pkt_count_system.memobj.mem_side::total      2223191                       # Packet count per connected master and slave (bytes)
system.membus.pkt_count::total               10188485                       # Packet count per connected master and slave (bytes)
system.membus.pkt_size_system.cpu.icache_port::system.mem_ctrl.port     31861176                       # Cumulative packet size per connected master and slave (bytes)
system.membus.pkt_size_system.cpu.icache_port::total     31861176                       # Cumulative packet size per connected master and slave (bytes)
system.membus.pkt_size_system.memobj.mem_side::system.mem_ctrl.port      7390810                       # Cumulative packet size per connected master and slave (bytes)
system.membus.pkt_size_system.memobj.mem_side::total      7390810                       # Cumulative packet size per connected master and slave (bytes)
system.membus.pkt_size::total                39251986                       # Cumulative packet size per connected master and slave (bytes)
system.membus.snoops                                0                       # Total snoops (count)
system.membus.snoopTraffic                          0                       # Total snoop traffic (bytes)
system.membus.snoop_fanout::samples           5094243                       # Request fanout histogram
system.membus.snoop_fanout::mean                    0                       # Request fanout histogram
system.membus.snoop_fanout::stdev                   0                       # Request fanout histogram
system.membus.snoop_fanout::underflows              0      0.00%      0.00% # Request fanout histogram
system.membus.snoop_fanout::0                 5094243    100.00%    100.00% # Request fanout histogram
system.membus.snoop_fanout::1                       0      0.00%    100.00% # Request fanout histogram
system.membus.snoop_fanout::overflows               0      0.00%    100.00% # Request fanout histogram
system.membus.snoop_fanout::min_value               0                       # Request fanout histogram
system.membus.snoop_fanout::max_value               0                       # Request fanout histogram
system.membus.snoop_fanout::total             5094243                       # Request fanout histogram
system.membus.reqLayer2.occupancy          5553655000                       # Layer occupancy (ticks)
system.membus.reqLayer2.utilization               2.2                       # Layer utilization (%)
system.membus.respLayer1.occupancy         1969438250                       # Layer occupancy (ticks)
system.membus.respLayer1.utilization              0.8                       # Layer utilization (%)
system.membus.respLayer0.occupancy         9051328500                       # Layer occupancy (ticks)
system.membus.respLayer0.utilization              3.6                       # Layer utilization (%)
system.membus.power_state.pwrStateResidencyTicks::UNDEFINED 251581525000                       # Cumulative time (in ticks) in various power states
system.mem_ctrl.bytes_read::.cpu.inst        31861176                       # Number of bytes read from this memory
system.mem_ctrl.bytes_read::.cpu.data         4229665                       # Number of bytes read from this memory
system.mem_ctrl.bytes_read::total            36090841                       # Number of bytes read from this memory
system.mem_ctrl.bytes_inst_read::.cpu.inst     31861176                       # Number of instructions bytes read from this memory
system.mem_ctrl.bytes_inst_read::total       31861176                       # Number of instructions bytes read from this memory
system.mem_ctrl.bytes_written::.cpu.data      3161145                       # Number of bytes written to this memory
system.mem_ctrl.bytes_written::total          3161145                       # Number of bytes written to this memory
system.mem_ctrl.num_reads::.cpu.inst          3982647                       # Number of read requests responded to by this memory
system.mem_ctrl.num_reads::.cpu.data           652184                       # Number of read requests responded to by this memory
system.mem_ctrl.num_reads::total              4634831                       # Number of read requests responded to by this memory
system.mem_ctrl.num_writes::.cpu.data          459412                       # Number of write requests responded to by this memory
system.mem_ctrl.num_writes::total              459412                       # Number of write requests responded to by this memory
system.mem_ctrl.bw_read::.cpu.inst          126643544                       # Total read bandwidth from this memory (bytes/s)
system.mem_ctrl.bw_read::.cpu.data           16812304                       # Total read bandwidth from this memory (bytes/s)
system.mem_ctrl.bw_read::total              143455848                       # Total read bandwidth from this memory (bytes/s)
system.mem_ctrl.bw_inst_read::.cpu.inst     126643544                       # Instruction read bandwidth from this memory (bytes/s)
system.mem_ctrl.bw_inst_read::total         126643544                       # Instruction read bandwidth from this memory (bytes/s)
system.mem_ctrl.bw_write::.cpu.data          12565092                       # Write bandwidth from this memory (bytes/s)
system.mem_ctrl.bw_write::total              12565092                       # Write bandwidth from this memory (bytes/s)
system.mem_ctrl.bw_total::.cpu.inst         126643544                       # Total bandwidth to/from this memory (bytes/s)
system.mem_ctrl.bw_total::.cpu.data          29377396                       # Total bandwidth to/from this memory (bytes/s)
system.mem_ctrl.bw_total::total             156020940                       # Total bandwidth to/from this memory (bytes/s)
system.mem_ctrl.avgPriority_.cpu.inst::samples   3982647.00                       # Average QoS priority value for accepted requests
system.mem_ctrl.avgPriority_.cpu.data::samples    621014.00                       # Average QoS priority value for accepted requests
system.mem_ctrl.priorityMinLatency       0.000000018750                       # per QoS priority minimum request to response latency (s)
system.mem_ctrl.priorityMaxLatency       0.017419494500                       # per QoS priority maximum request to response latency (s)
system.mem_ctrl.numReadWriteTurnArounds          2483                       # Number of turnarounds from READ to WRITE
system.mem_ctrl.numWriteReadTurnArounds          2483                       # Number of turnarounds from WRITE to READ
system.mem_ctrl.numStayReadState              9649266                       # Number of times bus staying in READ state
system.mem_ctrl.numStayWriteState               37303                       # Number of times bus staying in WRITE state
system.mem_ctrl.readReqs                      4634831                       # Number of read requests accepted
system.mem_ctrl.writeReqs                      459412                       # Number of write requests accepted
system.mem_ctrl.readBursts                    4634831                       # Number of DRAM read bursts, including those serviced by the write queue
system.mem_ctrl.writeBursts                    459412                       # Number of DRAM write bursts, including those merged in the write queue
system.mem_ctrl.servicedByWrQ                   70941                       # Number of DRAM read bursts serviced by the write queue
system.mem_ctrl.mergedWrBursts                 419641                       # Number of DRAM write bursts merged with an existing one
system.mem_ctrl.neitherReadNorWriteReqs             0                       # Number of requests that are neither read nor write
system.mem_ctrl.perBankRdBursts::0             150066                       # Per bank write bursts
system.mem_ctrl.perBankRdBursts::1             115975                       # Per bank write bursts
system.mem_ctrl.perBankRdBursts::2             189905                       # Per bank write bursts
system.mem_ctrl.perBankRdBursts::3             197375                       # Per bank write bursts
system.mem_ctrl.perBankRdBursts::4             975869                       # Per bank write bursts
system.mem_ctrl.perBankRdBursts::5             230472                       # Per bank write bursts
system.mem_ctrl.perBankRdBursts::6             603651                       # Per bank write bursts
system.mem_ctrl.perBankRdBursts::7             344647                       # Per bank write bursts
system.mem_ctrl.perBankRdBursts::8             381070                       # Per bank write bursts
system.mem_ctrl.perBankRdBursts::9             205474                       # Per bank write bursts
system.mem_ctrl.perBankRdBursts::10             63460                       # Per bank write bursts
system.mem_ctrl.perBankRdBursts::11            108821                       # Per bank write bursts
system.mem_ctrl.perBankRdBursts::12            526106                       # Per bank write bursts
system.mem_ctrl.perBankRdBursts::13            228741                       # Per bank write bursts
system.mem_ctrl.perBankRdBursts::14            106778                       # Per bank write bursts
system.mem_ctrl.perBankRdBursts::15            135480                       # Per bank write bursts
system.mem_ctrl.perBankWrBursts::0               1301                       # Per bank write bursts
system.mem_ctrl.perBankWrBursts::1               1635                       # Per bank write bursts
system.mem_ctrl.perBankWrBursts::2               4823                       # Per bank write bursts
system.mem_ctrl.perBankWrBursts::3               4316                       # Per bank write bursts
system.mem_ctrl.perBankWrBursts::4               6798                       # Per bank write bursts
system.mem_ctrl.perBankWrBursts::5               6646                       # Per bank write bursts
system.mem_ctrl.perBankWrBursts::6                171                       # Per bank write bursts
system.mem_ctrl.perBankWrBursts::7                890                       # Per bank write bursts
system.mem_ctrl.perBankWrBursts::8               3549                       # Per bank write bursts
system.mem_ctrl.perBankWrBursts::9                355                       # Per bank write bursts
system.mem_ctrl.perBankWrBursts::10               400                       # Per bank write bursts
system.mem_ctrl.perBankWrBursts::11              5333                       # Per bank write bursts
system.mem_ctrl.perBankWrBursts::12              1976                       # Per bank write bursts
system.mem_ctrl.perBankWrBursts::13               460                       # Per bank write bursts
system.mem_ctrl.perBankWrBursts::14               169                       # Per bank write bursts
system.mem_ctrl.perBankWrBursts::15               929                       # Per bank write bursts
system.mem_ctrl.avgRdQLen                        1.00                       # Average read queue length when enqueuing
system.mem_ctrl.avgWrQLen                       26.29                       # Average write queue length when enqueuing
system.mem_ctrl.totQLat                   16742152750                       # Total ticks spent queuing
system.mem_ctrl.totBusLat                 22819450000                       # Total ticks spent in databus transfers
system.mem_ctrl.totMemAccLat             102315090250                       # Total ticks spent from burst creation until serviced by the DRAM
system.mem_ctrl.avgQLat                       3668.40                       # Average queueing delay per DRAM burst
system.mem_ctrl.avgBusLat                     5000.00                       # Average bus latency per DRAM burst
system.mem_ctrl.avgMemAccLat                 22418.40                       # Average memory access latency per DRAM burst
system.mem_ctrl.numRdRetry                          0                       # Number of times read queue was full causing retry
system.mem_ctrl.numWrRetry                          0                       # Number of times write queue was full causing retry
system.mem_ctrl.readRowHits                   4072867                       # Number of row buffer hits during reads
system.mem_ctrl.writeRowHits                    35479                       # Number of row buffer hits during writes
system.mem_ctrl.readRowHitRate                  89.24                       # Row buffer hit rate for reads
system.mem_ctrl.writeRowHitRate                 89.21                       # Row buffer hit rate for writes
system.mem_ctrl.readPktSize::0                  68309                       # Read request sizes (log2)
system.mem_ctrl.readPktSize::1                  11968                       # Read request sizes (log2)
system.mem_ctrl.readPktSize::2                 109444                       # Read request sizes (log2)
system.mem_ctrl.readPktSize::3                4445110                       # Read request sizes (log2)
system.mem_ctrl.readPktSize::4                      0                       # Read request sizes (log2)
system.mem_ctrl.readPktSize::5                      0                       # Read request sizes (log2)
system.mem_ctrl.readPktSize::6                      0                       # Read request sizes (log2)
system.mem_ctrl.writePktSize::0                 23461                       # Write request sizes (log2)
system.mem_ctrl.writePktSize::1                 13305                       # Write request sizes (log2)
system.mem_ctrl.writePktSize::2                 67516                       # Write request sizes (log2)
system.mem_ctrl.writePktSize::3                355130                       # Write request sizes (log2)
system.mem_ctrl.writePktSize::4                     0                       # Write request sizes (log2)
system.mem_ctrl.writePktSize::5                     0                       # Write request sizes (log2)
system.mem_ctrl.writePktSize::6                     0                       # Write request sizes (log2)
system.mem_ctrl.rdQLenPdf::0                  4563724                       # What read queue length does an incoming req see
system.mem_ctrl.rdQLenPdf::1                      166                       # What read queue length does an incoming req see
system.mem_ctrl.rdQLenPdf::2                        0                       # What read queue length does an incoming req see
system.mem_ctrl.rdQLenPdf::3                        0                       # What read queue length does an incoming req see
system.mem_ctrl.rdQLenPdf::4                        0                       # What read queue length does an incoming req see
system.mem_ctrl.rdQLenPdf::5                        0                       # What read queue length does an incoming req see
system.mem_ctrl.rdQLenPdf::6                        0                       # What read queue length does an incoming req see
system.mem_ctrl.rdQLenPdf::7                        0                       # What read queue length does an incoming req see
system.mem_ctrl.rdQLenPdf::8                        0                       # What read queue length does an incoming req see
system.mem_ctrl.rdQLenPdf::9                        0                       # What read queue length does an incoming req see
system.mem_ctrl.rdQLenPdf::10                       0                       # What read queue length does an incoming req see
system.mem_ctrl.rdQLenPdf::11                       0                       # What read queue length does an incoming req see
system.mem_ctrl.rdQLenPdf::12                       0                       # What read queue length does an incoming req see
system.mem_ctrl.rdQLenPdf::13                       0                       # What read queue length does an incoming req see
system.mem_ctrl.rdQLenPdf::14                       0                       # What read queue length does an incoming req see
system.mem_ctrl.rdQLenPdf::15                       0                       # What read queue length does an incoming req see
system.mem_ctrl.rdQLenPdf::16                       0                       # What read queue length does an incoming req see
system.mem_ctrl.rdQLenPdf::17                       0                       # What read queue length does an incoming req see
system.mem_ctrl.rdQLenPdf::18                       0                       # What read queue length does an incoming req see
system.mem_ctrl.rdQLenPdf::19                       0                       # What read queue length does an incoming req see
system.mem_ctrl.rdQLenPdf::20                       0                       # What read queue length does an incoming req see
system.mem_ctrl.rdQLenPdf::21                       0                       # What read queue length does an incoming req see
system.mem_ctrl.rdQLenPdf::22                       0                       # What read queue length does an incoming req see
system.mem_ctrl.rdQLenPdf::23                       0                       # What read queue length does an incoming req see
system.mem_ctrl.rdQLenPdf::24                       0                       # What read queue length does an incoming req see
system.mem_ctrl.rdQLenPdf::25                       0                       # What read queue length does an incoming req see
system.mem_ctrl.rdQLenPdf::26                       0                       # What read queue length does an incoming req see
system.mem_ctrl.rdQLenPdf::27                       0                       # What read queue length does an incoming req see
system.mem_ctrl.rdQLenPdf::28                       0                       # What read queue length does an incoming req see
system.mem_ctrl.rdQLenPdf::29                       0                       # What read queue length does an incoming req see
system.mem_ctrl.rdQLenPdf::30                       0                       # What read queue length does an incoming req see
system.mem_ctrl.rdQLenPdf::31                       0                       # What read queue length does an incoming req see
system.mem_ctrl.wrQLenPdf::0                        1                       # What write queue length does an incoming req see
system.mem_ctrl.wrQLenPdf::1                        1                       # What write queue length does an incoming req see
system.mem_ctrl.wrQLenPdf::2                        1                       # What write queue length does an incoming req see
system.mem_ctrl.wrQLenPdf::3                        1                       # What write queue length does an incoming req see
system.mem_ctrl.wrQLenPdf::4                        1                       # What write queue length does an incoming req see
system.mem_ctrl.wrQLenPdf::5                        1                       # What write queue length does an incoming req see
system.mem_ctrl.wrQLenPdf::6                        1                       # What write queue length does an incoming req see
system.mem_ctrl.wrQLenPdf::7                        1                       # What write queue length does an incoming req see
system.mem_ctrl.wrQLenPdf::8                        1                       # What write queue length does an incoming req see
system.mem_ctrl.wrQLenPdf::9                        1                       # What write queue length does an incoming req see
system.mem_ctrl.wrQLenPdf::10                       1                       # What write queue length does an incoming req see
system.mem_ctrl.wrQLenPdf::11                       1                       # What write queue length does an incoming req see
system.mem_ctrl.wrQLenPdf::12                       1                       # What write queue length does an incoming req see
system.mem_ctrl.wrQLenPdf::13                       1                       # What write queue length does an incoming req see
system.mem_ctrl.wrQLenPdf::14                       1                       # What write queue length does an incoming req see
system.mem_ctrl.wrQLenPdf::15                      12                       # What write queue length does an incoming req see
system.mem_ctrl.wrQLenPdf::16                      12                       # What write queue length does an incoming req see
system.mem_ctrl.wrQLenPdf::17                    2484                       # What write queue length does an incoming req see
system.mem_ctrl.wrQLenPdf::18                    2485                       # What write queue length does an incoming req see
system.mem_ctrl.wrQLenPdf::19                    2484                       # What write queue length does an incoming req see
system.mem_ctrl.wrQLenPdf::20                    2483                       # What write queue length does an incoming req see
system.mem_ctrl.wrQLenPdf::21                    2483                       # What write queue length does an incoming req see
system.mem_ctrl.wrQLenPdf::22                    2483                       # What write queue length does an incoming req see
system.mem_ctrl.wrQLenPdf::23                    2483                       # What write queue length does an incoming req see
system.mem_ctrl.wrQLenPdf::24                    2483                       # What write queue length does an incoming req see
system.mem_ctrl.wrQLenPdf::25                    2483                       # What write queue length does an incoming req see
system.mem_ctrl.wrQLenPdf::26                    2483                       # What write queue length does an incoming req see
system.mem_ctrl.wrQLenPdf::27                    2483                       # What write queue length does an incoming req see
system.mem_ctrl.wrQLenPdf::28                    2483                       # What write queue length does an incoming req see
system.mem_ctrl.wrQLenPdf::29                    2483                       # What write queue length does an incoming req see
system.mem_ctrl.wrQLenPdf::30                    2483                       # What write queue length does an incoming req see
system.mem_ctrl.wrQLenPdf::31                    2483                       # What write queue length does an incoming req see
system.mem_ctrl.wrQLenPdf::32                    2483                       # What write queue length does an incoming req see
system.mem_ctrl.wrQLenPdf::33                       0                       # What write queue length does an incoming req see
system.mem_ctrl.wrQLenPdf::34                       0                       # What write queue length does an incoming req see
system.mem_ctrl.wrQLenPdf::35                       0                       # What write queue length does an incoming req see
system.mem_ctrl.wrQLenPdf::36                       0                       # What write queue length does an incoming req see
system.mem_ctrl.wrQLenPdf::37                       0                       # What write queue length does an incoming req see
system.mem_ctrl.wrQLenPdf::38                       0                       # What write queue length does an incoming req see
system.mem_ctrl.wrQLenPdf::39                       0                       # What write queue length does an incoming req see
system.mem_ctrl.wrQLenPdf::40                       0                       # What write queue length does an incoming req see
system.mem_ctrl.wrQLenPdf::41                       0                       # What write queue length does an incoming req see
system.mem_ctrl.wrQLenPdf::42                       0                       # What write queue length does an incoming req see
system.mem_ctrl.wrQLenPdf::43                       0                       # What write queue length does an incoming req see
system.mem_ctrl.wrQLenPdf::44                       0                       # What write queue length does an incoming req see
system.mem_ctrl.wrQLenPdf::45                       0                       # What write queue length does an incoming req see
system.mem_ctrl.wrQLenPdf::46                       0                       # What write queue length does an incoming req see
system.mem_ctrl.wrQLenPdf::47                       0                       # What write queue length does an incoming req see
system.mem_ctrl.wrQLenPdf::48                       0                       # What write queue length does an incoming req see
system.mem_ctrl.wrQLenPdf::49                       0                       # What write queue length does an incoming req see
system.mem_ctrl.wrQLenPdf::50                       0                       # What write queue length does an incoming req see
system.mem_ctrl.wrQLenPdf::51                       0                       # What write queue length does an incoming req see
system.mem_ctrl.wrQLenPdf::52                       0                       # What write queue length does an incoming req see
system.mem_ctrl.wrQLenPdf::53                       0                       # What write queue length does an incoming req see
system.mem_ctrl.wrQLenPdf::54                       0                       # What write queue length does an incoming req see
system.mem_ctrl.wrQLenPdf::55                       0                       # What write queue length does an incoming req see
system.mem_ctrl.wrQLenPdf::56                       0                       # What write queue length does an incoming req see
system.mem_ctrl.wrQLenPdf::57                       0                       # What write queue length does an incoming req see
system.mem_ctrl.wrQLenPdf::58                       0                       # What write queue length does an incoming req see
system.mem_ctrl.wrQLenPdf::59                       0                       # What write queue length does an incoming req see
system.mem_ctrl.wrQLenPdf::60                       0                       # What write queue length does an incoming req see
system.mem_ctrl.wrQLenPdf::61                       0                       # What write queue length does an incoming req see
system.mem_ctrl.wrQLenPdf::62                       0                       # What write queue length does an incoming req see
system.mem_ctrl.wrQLenPdf::63                       0                       # What write queue length does an incoming req see
system.mem_ctrl.bytesPerActivate::samples       495295                       # Bytes accessed per row activation
system.mem_ctrl.bytesPerActivate::mean     594.863716                       # Bytes accessed per row activation
system.mem_ctrl.bytesPerActivate::gmean    379.679747                       # Bytes accessed per row activation
system.mem_ctrl.bytesPerActivate::stdev    413.634321                       # Bytes accessed per row activation
system.mem_ctrl.bytesPerActivate::0-127        101330     20.46%     20.46% # Bytes accessed per row activation
system.mem_ctrl.bytesPerActivate::128-255        64343     12.99%     33.45% # Bytes accessed per row activation
system.mem_ctrl.bytesPerActivate::256-383        29163      5.89%     39.34% # Bytes accessed per row activation
system.mem_ctrl.bytesPerActivate::384-511        26979      5.45%     44.78% # Bytes accessed per row activation
system.mem_ctrl.bytesPerActivate::512-639        19229      3.88%     48.67% # Bytes accessed per row activation
system.mem_ctrl.bytesPerActivate::640-767        16805      3.39%     52.06% # Bytes accessed per row activation
system.mem_ctrl.bytesPerActivate::768-895        20980      4.24%     56.30% # Bytes accessed per row activation
system.mem_ctrl.bytesPerActivate::896-1023        12019      2.43%     58.72% # Bytes accessed per row activation
system.mem_ctrl.bytesPerActivate::1024-1151       204447     41.28%    100.00% # Bytes accessed per row activation
system.mem_ctrl.bytesPerActivate::total        495295                       # Bytes accessed per row activation
system.mem_ctrl.rdPerTurnAround::samples         2483                       # Reads before turning the bus around for writes
system.mem_ctrl.rdPerTurnAround::mean     1838.002819                       # Reads before turning the bus around for writes
system.mem_ctrl.rdPerTurnAround::stdev    3369.493490                       # Reads before turning the bus around for writes
system.mem_ctrl.rdPerTurnAround::0-2047          2005     80.75%     80.75% # Reads before turning the bus around for writes
system.mem_ctrl.rdPerTurnAround::2048-4095          272     10.95%     91.70% # Reads before turning the bus around for writes
system.mem_ctrl.rdPerTurnAround::4096-6143           98      3.95%     95.65% # Reads before turning the bus around for writes
system.mem_ctrl.rdPerTurnAround::6144-8191           27      1.09%     96.74% # Reads before turning the bus around for writes
system.mem_ctrl.rdPerTurnAround::8192-10239           21      0.85%     97.58% # Reads before turning the bus around for writes
system.mem_ctrl.rdPerTurnAround::10240-12287           10      0.40%     97.99% # Reads before turning the bus around for writes
system.mem_ctrl.rdPerTurnAround::12288-14335           13      0.52%     98.51% # Reads before turning the bus around for writes
system.mem_ctrl.rdPerTurnAround::14336-16383            5      0.20%     98.71% # Reads before turning the bus around for writes
system.mem_ctrl.rdPerTurnAround::16384-18431            6      0.24%     98.95% # Reads before turning the bus around for writes
system.mem_ctrl.rdPerTurnAround::18432-20479            3      0.12%     99.07% # Reads before turning the bus around for writes
system.mem_ctrl.rdPerTurnAround::20480-22527            6      0.24%     99.32% # Reads before turning the bus around for writes
system.mem_ctrl.rdPerTurnAround::22528-24575            2      0.08%     99.40% # Reads before turning the bus around for writes
system.mem_ctrl.rdPerTurnAround::24576-26623            4      0.16%     99.56% # Reads before turning the bus around for writes
system.mem_ctrl.rdPerTurnAround::26624-28671            4      0.16%     99.72% # Reads before turning the bus around for writes
system.mem_ctrl.rdPerTurnAround::28672-30719            3      0.12%     99.84% # Reads before turning the bus around for writes
system.mem_ctrl.rdPerTurnAround::30720-32767            1      0.04%     99.88% # Reads before turning the bus around for writes
system.mem_ctrl.rdPerTurnAround::40960-43007            1      0.04%     99.92% # Reads before turning the bus around for writes
system.mem_ctrl.rdPerTurnAround::43008-45055            1      0.04%     99.96% # Reads before turning the bus around for writes
system.mem_ctrl.rdPerTurnAround::47104-49151            1      0.04%    100.00% # Reads before turning the bus around for writes
system.mem_ctrl.rdPerTurnAround::total           2483                       # Reads before turning the bus around for writes
system.mem_ctrl.wrPerTurnAround::samples         2483                       # Writes before turning the bus around for reads
system.mem_ctrl.wrPerTurnAround::mean       16.009263                       # Writes before turning the bus around for reads
system.mem_ctrl.wrPerTurnAround::gmean      16.008699                       # Writes before turning the bus around for reads
system.mem_ctrl.wrPerTurnAround::stdev       0.140201                       # Writes before turning the bus around for reads
system.mem_ctrl.wrPerTurnAround::16              2472     99.56%     99.56% # Writes before turning the bus around for reads
system.mem_ctrl.wrPerTurnAround::18                10      0.40%     99.96% # Writes before turning the bus around for reads
system.mem_ctrl.wrPerTurnAround::19                 1      0.04%    100.00% # Writes before turning the bus around for reads
system.mem_ctrl.wrPerTurnAround::total           2483                       # Writes before turning the bus around for reads
system.mem_ctrl.bytesReadDRAM               292088960                       # Total number of bytes read from DRAM
system.mem_ctrl.bytesReadWrQ                  4540224                       # Total number of bytes read from write queue
system.mem_ctrl.bytesWritten                  2544064                       # Total number of bytes written to DRAM
system.mem_ctrl.bytesReadSys                 36090841                       # Total read bytes from the system interface side
system.mem_ctrl.bytesWrittenSys               3161145                       # Total written bytes from the system interface side
system.mem_ctrl.avgRdBW                       1161.01                       # Average DRAM read bandwidth in MiByte/s
system.mem_ctrl.avgWrBW                         10.11                       # Average achieved write bandwidth in MiByte/s
system.mem_ctrl.avgRdBWSys                     143.46                       # Average system read bandwidth in MiByte/s
system.mem_ctrl.avgWrBWSys                      12.57                       # Average system write bandwidth in MiByte/s
system.mem_ctrl.peakBW                       12800.00                       # Theoretical peak bandwidth in MiByte/s
system.mem_ctrl.busUtil                          9.15                       # Data bus utilization in percentage
system.mem_ctrl.busUtilRead                      9.07                       # Data bus utilization in percentage for reads
system.mem_ctrl.busUtilWrite                     0.08                       # Data bus utilization in percentage for writes
system.mem_ctrl.totGap                   251581448000                       # Total gap between requests
system.mem_ctrl.avgGap                       49385.44                       # Average gap between requests
system.mem_ctrl.masterReadBytes::.cpu.inst     31861176                       # Per-master bytes read from memory
system.mem_ctrl.masterReadBytes::.cpu.data      3795020                       # Per-master bytes read from memory
system.mem_ctrl.masterWriteBytes::.cpu.data       272140                       # Per-master bytes write to memory
system.mem_ctrl.masterReadRate::.cpu.inst 126643544.274564683437                       # Per-master bytes read from memory rate (Bytes/sec)
system.mem_ctrl.masterReadRate::.cpu.data 15084652.976803446189                       # Per-master bytes read from memory rate (Bytes/sec)
system.mem_ctrl.masterWriteRate::.cpu.data 1081716.950400074245                       # Per-master bytes write to memory rate (Bytes/sec)
system.mem_ctrl.masterReadAccesses::.cpu.inst      3982647                       # Per-master read serviced memory accesses
system.mem_ctrl.masterReadAccesses::.cpu.data       652184                       # Per-master read serviced memory accesses
system.mem_ctrl.masterWriteAccesses::.cpu.data       459412                       # Per-master write serviced memory accesses
system.mem_ctrl.masterReadTotalLat::.cpu.inst  87164885500                       # Per-master read total memory access latency
system.mem_ctrl.masterReadTotalLat::.cpu.data  15150204750                       # Per-master read total memory access latency
system.mem_ctrl.masterWriteTotalLat::.cpu.data 6502533479500                       # Per-master write total memory access latency
system.mem_ctrl.masterReadAvgLat::.cpu.inst     21886.17                       # Per-master read average memory access latency
system.mem_ctrl.masterReadAvgLat::.cpu.data     23229.95                       # Per-master read average memory access latency
system.mem_ctrl.masterWriteAvgLat::.cpu.data  14154034.90                       # Per-master write average memory access latency
system.mem_ctrl.pageHitRate                     89.24                       # Row buffer hit rate, read and write combined
system.mem_ctrl.rank1.actEnergy            1264858140                       # Energy for activate commands per rank (pJ)
system.mem_ctrl.rank1.preEnergy             672288045                       # Energy for precharge commands per rank (pJ)
system.mem_ctrl.rank1.readEnergy          12537340200                       # Energy for read commands per rank (pJ)
system.mem_ctrl.rank1.writeEnergy            68752620                       # Energy for write commands per rank (pJ)
system.mem_ctrl.rank1.refreshEnergy      19859018400.000004                       # Energy for refresh commands per rank (pJ)
system.mem_ctrl.rank1.actBackEnergy       92255210220                       # Energy for active background per rank (pJ)
system.mem_ctrl.rank1.preBackEnergy       18918707520                       # Energy for precharge background per rank (pJ)
system.mem_ctrl.rank1.actPowerDownEnergy            0                       # Energy for active power-down per rank (pJ)
system.mem_ctrl.rank1.prePowerDownEnergy            0                       # Energy for precharge power-down per rank (pJ)
system.mem_ctrl.rank1.selfRefreshEnergy             0                       # Energy for self refresh per rank (pJ)
system.mem_ctrl.rank1.totalEnergy        145576175145                       # Total energy per rank (pJ)
system.mem_ctrl.rank1.averagePower         578.644140                       # Core power per rank (mW)
system.mem_ctrl.rank1.totalIdleTime                 0                       # Total Idle time Per DRAM Rank
system.mem_ctrl.rank1.memoryStateTime::IDLE  47897496500                       # Time in different power states
system.mem_ctrl.rank1.memoryStateTime::REF   8400600000                       # Time in different power states
system.mem_ctrl.rank1.memoryStateTime::SREF            0                       # Time in different power states
system.mem_ctrl.rank1.memoryStateTime::PRE_PDN            0                       # Time in different power states
system.mem_ctrl.rank1.memoryStateTime::ACT 195283428500                       # Time in different power states
system.mem_ctrl.rank1.memoryStateTime::ACT_PDN            0                       # Time in different power states
system.mem_ctrl.rank0.actEnergy            2271548160                       # Energy for activate commands per rank (pJ)
system.mem_ctrl.rank0.preEnergy            1207356480                       # Energy for precharge commands per rank (pJ)
system.mem_ctrl.rank0.readEnergy          20048834400                       # Energy for read commands per rank (pJ)
system.mem_ctrl.rank0.writeEnergy           138747600                       # Energy for write commands per rank (pJ)
system.mem_ctrl.rank0.refreshEnergy      19859018400.000004                       # Energy for refresh commands per rank (pJ)
system.mem_ctrl.rank0.actBackEnergy      103838065650                       # Energy for active background per rank (pJ)
system.mem_ctrl.rank0.preBackEnergy        9164724000                       # Energy for precharge background per rank (pJ)
system.mem_ctrl.rank0.actPowerDownEnergy            0                       # Energy for active power-down per rank (pJ)
system.mem_ctrl.rank0.prePowerDownEnergy            0                       # Energy for precharge power-down per rank (pJ)
system.mem_ctrl.rank0.selfRefreshEnergy             0                       # Energy for self refresh per rank (pJ)
system.mem_ctrl.rank0.totalEnergy        156528294690                       # Total energy per rank (pJ)
system.mem_ctrl.rank0.averagePower         622.177223                       # Core power per rank (mW)
system.mem_ctrl.rank0.totalIdleTime                 0                       # Total Idle time Per DRAM Rank
system.mem_ctrl.rank0.memoryStateTime::IDLE  21605641250                       # Time in different power states
system.mem_ctrl.rank0.memoryStateTime::REF   8400600000                       # Time in different power states
system.mem_ctrl.rank0.memoryStateTime::SREF            0                       # Time in different power states
system.mem_ctrl.rank0.memoryStateTime::PRE_PDN            0                       # Time in different power states
system.mem_ctrl.rank0.memoryStateTime::ACT 221575283750                       # Time in different power states
system.mem_ctrl.rank0.memoryStateTime::ACT_PDN            0                       # Time in different power states
system.mem_ctrl.power_state.pwrStateResidencyTicks::UNDEFINED 251581525000                       # Cumulative time (in ticks) in various power states
system.cache.blocked_cycles::no_mshrs               0                       # number of cycles access was blocked
system.cache.blocked_cycles::no_targets             0                       # number of cycles access was blocked
system.cache.blocked::no_mshrs                      0                       # number of cycles access was blocked
system.cache.blocked::no_targets                    0                       # number of cycles access was blocked
system.cache.avg_blocked_cycles::no_mshrs          nan                       # average number of cycles each access was blocked
system.cache.avg_blocked_cycles::no_targets          nan                       # average number of cycles each access was blocked
system.cache.replacements                           0                       # number of replacements
system.cache.power_state.pwrStateResidencyTicks::UNDEFINED 251581525000                       # Cumulative time (in ticks) in various power states
system.cache.tags.tagsinuse                         0                       # Cycle average of tags in use
system.cache.tags.total_refs                        0                       # Total number of references to valid blocks.
system.cache.tags.sampled_refs                      0                       # Sample count of references to valid blocks.
system.cache.tags.avg_refs                        nan                       # Average number of references to valid blocks.
system.cache.tags.warmup_cycle                      0                       # Cycle when the warmup percentage was hit.
system.cache.tags.tag_accesses                      0                       # Number of tag accesses
system.cache.tags.data_accesses                     0                       # Number of data accesses
system.cache.tags.power_state.pwrStateResidencyTicks::UNDEFINED 251581525000                       # Cumulative time (in ticks) in various power states
system.clk_domain.clock                          1000                       # Clock period in ticks
system.clk_domain.voltage_domain.voltage            1                       # Voltage in Volts
system.cachebus.snoops                              0                       # Total snoops (count)
system.cachebus.snoopTraffic                        0                       # Total snoop traffic (bytes)
system.cachebus.snoop_fanout::samples               0                       # Request fanout histogram
system.cachebus.snoop_fanout::mean                nan                       # Request fanout histogram
system.cachebus.snoop_fanout::stdev               nan                       # Request fanout histogram
system.cachebus.snoop_fanout::underflows            0                       # Request fanout histogram
system.cachebus.snoop_fanout::0                     0                       # Request fanout histogram
system.cachebus.snoop_fanout::overflows             0                       # Request fanout histogram
system.cachebus.snoop_fanout::min_value             0                       # Request fanout histogram
system.cachebus.snoop_fanout::max_value             0                       # Request fanout histogram
system.cachebus.snoop_fanout::total                 0                       # Request fanout histogram
system.cachebus.power_state.pwrStateResidencyTicks::UNDEFINED 251581525000                       # Cumulative time (in ticks) in various power states
system.cpu.dtb.walker.power_state.pwrStateResidencyTicks::UNDEFINED 251581525000                       # Cumulative time (in ticks) in various power states
system.cpu.interrupts.clk_domain.clock          16000                       # Clock period in ticks
system.cpu.itb.walker.power_state.pwrStateResidencyTicks::UNDEFINED 251581525000                       # Cumulative time (in ticks) in various power states
system.cpu.power_state.numTransitions               1                       # Number of power state transitions
system.cpu.power_state.pwrStateResidencyTicks::ON 251581525000                       # Cumulative time (in ticks) in various power states

---------- End Simulation Statistics   ----------
