
---------- Begin Simulation Statistics ----------
final_tick                                46010540000                       # Number of ticks from beginning of simulation (restored from checkpoints and never reset)
host_inst_rate                                 521923                       # Simulator instruction rate (inst/s)
host_mem_usage                                 747704                       # Number of bytes of host memory used
host_op_rate                                   973782                       # Simulator op (including micro ops) rate (op/s)
host_seconds                                    19.16                       # Real time elapsed on the host
host_tick_rate                             2401368821                       # Simulator tick rate (ticks/s)
sim_freq                                 1000000000000                       # Frequency of simulated ticks
sim_insts                                    10000000                       # Number of instructions simulated
sim_ops                                      18657738                       # Number of ops (including micro ops) simulated
sim_seconds                                  0.046011                       # Number of seconds simulated
sim_ticks                                 46010540000                       # Number of ticks simulated
system.cpu.Branches                           2247253                       # Number of branches fetched
system.cpu.committedInsts                    10000000                       # Number of instructions committed
system.cpu.committedOps                      18657738                       # Number of ops (including micro ops) committed
system.cpu.dtb.rdAccesses                     2414291                       # TLB accesses on read requests
system.cpu.dtb.rdMisses                           222                       # TLB misses on read requests
system.cpu.dtb.wrAccesses                     1337989                       # TLB accesses on write requests
system.cpu.dtb.wrMisses                           194                       # TLB misses on write requests
system.cpu.idle_fraction                            0                       # Percentage of idle cycles
system.cpu.itb.rdAccesses                           0                       # TLB accesses on read requests
system.cpu.itb.rdMisses                             0                       # TLB misses on read requests
system.cpu.itb.wrAccesses                    12959861                       # TLB accesses on write requests
system.cpu.itb.wrMisses                           167                       # TLB misses on write requests
system.cpu.not_idle_fraction                        1                       # Percentage of non-idle cycles
system.cpu.numCycles                         46010540                       # number of cpu cycles simulated
system.cpu.numWorkItemsCompleted                    0                       # number of work items this cpu completed
system.cpu.numWorkItemsStarted                      0                       # number of work items this cpu started
system.cpu.num_busy_cycles                   46010540                       # Number of busy cycles
system.cpu.num_cc_register_reads             11294363                       # number of times the CC registers were read
system.cpu.num_cc_register_writes             6187541                       # number of times the CC registers were written
system.cpu.num_conditional_control_insts      1675696                       # number of instructions that are conditional controls
system.cpu.num_fp_alu_accesses                 164291                       # Number of float alu accesses
system.cpu.num_fp_insts                        164291                       # number of float instructions
system.cpu.num_fp_register_reads               262279                       # number of times the floating registers were read
system.cpu.num_fp_register_writes              130621                       # number of times the floating registers were written
system.cpu.num_func_calls                      352860                       # number of times a function call or return occured
system.cpu.num_idle_cycles                          0                       # Number of idle cycles
system.cpu.num_int_alu_accesses              18493027                       # Number of integer alu accesses
system.cpu.num_int_insts                     18493027                       # number of integer instructions
system.cpu.num_int_register_reads            36543892                       # number of times the integer registers were read
system.cpu.num_int_register_writes           14903125                       # number of times the integer registers were written
system.cpu.num_load_insts                     2412065                       # Number of load instructions
system.cpu.num_mem_refs                       3749393                       # number of memory refs
system.cpu.num_store_insts                    1337328                       # Number of store instructions
system.cpu.num_vec_alu_accesses                     0                       # Number of vector alu accesses
system.cpu.num_vec_insts                            0                       # number of vector instructions
system.cpu.num_vec_register_reads                   0                       # number of times the vector registers were read
system.cpu.num_vec_register_writes                  0                       # number of times the vector registers were written
system.cpu.op_class::No_OpClass                 53286      0.29%      0.29% # Class of executed instruction
system.cpu.op_class::IntAlu                  14726010     78.93%     79.21% # Class of executed instruction
system.cpu.op_class::IntMult                     1407      0.01%     79.22% # Class of executed instruction
system.cpu.op_class::IntDiv                       973      0.01%     79.23% # Class of executed instruction
system.cpu.op_class::FloatAdd                     653      0.00%     79.23% # Class of executed instruction
system.cpu.op_class::FloatCmp                       0      0.00%     79.23% # Class of executed instruction
system.cpu.op_class::FloatCvt                       0      0.00%     79.23% # Class of executed instruction
system.cpu.op_class::FloatMult                      0      0.00%     79.23% # Class of executed instruction
system.cpu.op_class::FloatMultAcc                   0      0.00%     79.23% # Class of executed instruction
system.cpu.op_class::FloatDiv                       0      0.00%     79.23% # Class of executed instruction
system.cpu.op_class::FloatMisc                      0      0.00%     79.23% # Class of executed instruction
system.cpu.op_class::FloatSqrt                      0      0.00%     79.23% # Class of executed instruction
system.cpu.op_class::SimdAdd                       16      0.00%     79.23% # Class of executed instruction
system.cpu.op_class::SimdAddAcc                     0      0.00%     79.23% # Class of executed instruction
system.cpu.op_class::SimdAlu                    58338      0.31%     79.54% # Class of executed instruction
system.cpu.op_class::SimdCmp                      834      0.00%     79.55% # Class of executed instruction
system.cpu.op_class::SimdCvt                    32748      0.18%     79.72% # Class of executed instruction
system.cpu.op_class::SimdMisc                   33704      0.18%     79.90% # Class of executed instruction
system.cpu.op_class::SimdMult                       0      0.00%     79.90% # Class of executed instruction
system.cpu.op_class::SimdMultAcc                    0      0.00%     79.90% # Class of executed instruction
system.cpu.op_class::SimdShift                      0      0.00%     79.90% # Class of executed instruction
system.cpu.op_class::SimdShiftAcc                   0      0.00%     79.90% # Class of executed instruction
system.cpu.op_class::SimdDiv                        0      0.00%     79.90% # Class of executed instruction
system.cpu.op_class::SimdSqrt                       0      0.00%     79.90% # Class of executed instruction
system.cpu.op_class::SimdFloatAdd                   0      0.00%     79.90% # Class of executed instruction
system.cpu.op_class::SimdFloatAlu                   0      0.00%     79.90% # Class of executed instruction
system.cpu.op_class::SimdFloatCmp                   0      0.00%     79.90% # Class of executed instruction
system.cpu.op_class::SimdFloatCvt                 469      0.00%     79.90% # Class of executed instruction
system.cpu.op_class::SimdFloatDiv                   0      0.00%     79.90% # Class of executed instruction
system.cpu.op_class::SimdFloatMisc                  0      0.00%     79.90% # Class of executed instruction
system.cpu.op_class::SimdFloatMult                  0      0.00%     79.90% # Class of executed instruction
system.cpu.op_class::SimdFloatMultAcc               0      0.00%     79.90% # Class of executed instruction
system.cpu.op_class::SimdFloatSqrt                  0      0.00%     79.90% # Class of executed instruction
system.cpu.op_class::SimdReduceAdd                  0      0.00%     79.90% # Class of executed instruction
system.cpu.op_class::SimdReduceAlu                  0      0.00%     79.90% # Class of executed instruction
system.cpu.op_class::SimdReduceCmp                  0      0.00%     79.90% # Class of executed instruction
system.cpu.op_class::SimdFloatReduceAdd             0      0.00%     79.90% # Class of executed instruction
system.cpu.op_class::SimdFloatReduceCmp             0      0.00%     79.90% # Class of executed instruction
system.cpu.op_class::SimdAes                        0      0.00%     79.90% # Class of executed instruction
system.cpu.op_class::SimdAesMix                     0      0.00%     79.90% # Class of executed instruction
system.cpu.op_class::SimdSha1Hash                   0      0.00%     79.90% # Class of executed instruction
system.cpu.op_class::SimdSha1Hash2                  0      0.00%     79.90% # Class of executed instruction
system.cpu.op_class::SimdSha256Hash                 0      0.00%     79.90% # Class of executed instruction
system.cpu.op_class::SimdSha256Hash2                0      0.00%     79.90% # Class of executed instruction
system.cpu.op_class::SimdShaSigma2                  0      0.00%     79.90% # Class of executed instruction
system.cpu.op_class::SimdShaSigma3                  0      0.00%     79.90% # Class of executed instruction
system.cpu.op_class::SimdPredAlu                    0      0.00%     79.90% # Class of executed instruction
system.cpu.op_class::MemRead                  2379592     12.75%     92.66% # Class of executed instruction
system.cpu.op_class::MemWrite                 1334695      7.15%     99.81% # Class of executed instruction
system.cpu.op_class::FloatMemRead               32473      0.17%     99.99% # Class of executed instruction
system.cpu.op_class::FloatMemWrite               2633      0.01%    100.00% # Class of executed instruction
system.cpu.op_class::IprAccess                      0      0.00%    100.00% # Class of executed instruction
system.cpu.op_class::InstPrefetch                   0      0.00%    100.00% # Class of executed instruction
system.cpu.op_class::total                   18657831                       # Class of executed instruction
system.cpu.workload.numSyscalls                    15                       # Number of system calls
system.l2bar.snoop_filter.hit_multi_requests            0                       # Number of requests hitting in the snoop filter with multiple (>1) holders of the requested data.
system.l2bar.snoop_filter.hit_multi_snoops            0                       # Number of snoops hitting in the snoop filter with multiple (>1) holders of the requested data.
system.l2bar.snoop_filter.hit_single_requests       166179                       # Number of requests hitting in the snoop filter with a single holder of the requested data.
system.l2bar.snoop_filter.hit_single_snoops        17617                       # Number of snoops hitting in the snoop filter with a single holder of the requested data.
system.l2bar.snoop_filter.tot_requests         333058                       # Total number of requests made to the snoop filter.
system.l2bar.snoop_filter.tot_snoops            17617                       # Total number of snoops made to the snoop filter.
system.membus.snoop_filter.hit_multi_requests            0                       # Number of requests hitting in the snoop filter with multiple (>1) holders of the requested data.
system.membus.snoop_filter.hit_multi_snoops            0                       # Number of snoops hitting in the snoop filter with multiple (>1) holders of the requested data.
system.membus.snoop_filter.hit_single_requests         3198                       # Number of requests hitting in the snoop filter with a single holder of the requested data.
system.membus.snoop_filter.hit_single_snoops            0                       # Number of snoops hitting in the snoop filter with a single holder of the requested data.
system.membus.snoop_filter.tot_requests         14145                       # Total number of requests made to the snoop filter.
system.membus.snoop_filter.tot_snoops               0                       # Total number of snoops made to the snoop filter.
system.membus.trans_dist::ReadResp               4828                       # Transaction distribution
system.membus.trans_dist::WritebackDirty           57                       # Transaction distribution
system.membus.trans_dist::CleanEvict             3141                       # Transaction distribution
system.membus.trans_dist::ReadExReq              6119                       # Transaction distribution
system.membus.trans_dist::ReadExResp             6119                       # Transaction distribution
system.membus.trans_dist::ReadSharedReq          4828                       # Transaction distribution
system.membus.pkt_count_system.DynamicCache.mem_side::system.mem_delay-slave        25092                       # Packet count per connected master and slave (bytes)
system.membus.pkt_count_system.DynamicCache.mem_side::total        25092                       # Packet count per connected master and slave (bytes)
system.membus.pkt_count::total                  25092                       # Packet count per connected master and slave (bytes)
system.membus.pkt_size_system.DynamicCache.mem_side::system.mem_delay-slave       704256                       # Cumulative packet size per connected master and slave (bytes)
system.membus.pkt_size_system.DynamicCache.mem_side::total       704256                       # Cumulative packet size per connected master and slave (bytes)
system.membus.pkt_size::total                  704256                       # Cumulative packet size per connected master and slave (bytes)
system.membus.snoops                                0                       # Total snoops (count)
system.membus.snoopTraffic                          0                       # Total snoop traffic (bytes)
system.membus.snoop_fanout::samples             10947                       # Request fanout histogram
system.membus.snoop_fanout::mean                    0                       # Request fanout histogram
system.membus.snoop_fanout::stdev                   0                       # Request fanout histogram
system.membus.snoop_fanout::underflows              0      0.00%      0.00% # Request fanout histogram
system.membus.snoop_fanout::0                   10947    100.00%    100.00% # Request fanout histogram
system.membus.snoop_fanout::1                       0      0.00%    100.00% # Request fanout histogram
system.membus.snoop_fanout::overflows               0      0.00%    100.00% # Request fanout histogram
system.membus.snoop_fanout::min_value               0                       # Request fanout histogram
system.membus.snoop_fanout::max_value               0                       # Request fanout histogram
system.membus.snoop_fanout::total               10947                       # Request fanout histogram
system.membus.reqLayer0.occupancy            14373000                       # Layer occupancy (ticks)
system.membus.reqLayer0.utilization               0.0                       # Layer utilization (%)
system.membus.respLayer0.occupancy           58958000                       # Layer occupancy (ticks)
system.membus.respLayer0.utilization              0.1                       # Layer utilization (%)
system.membus.power_state.pwrStateResidencyTicks::UNDEFINED  46010540000                       # Cumulative time (in ticks) in various power states
system.icache.demand_hits::.cpu.inst         12855910                       # number of demand (read+write) hits
system.icache.demand_hits::total             12855910                       # number of demand (read+write) hits
system.icache.overall_hits::.cpu.inst        12855910                       # number of overall hits
system.icache.overall_hits::total            12855910                       # number of overall hits
system.icache.demand_misses::.cpu.inst         103951                       # number of demand (read+write) misses
system.icache.demand_misses::total             103951                       # number of demand (read+write) misses
system.icache.overall_misses::.cpu.inst        103951                       # number of overall misses
system.icache.overall_misses::total            103951                       # number of overall misses
system.icache.demand_miss_latency::.cpu.inst   5828804000                       # number of demand (read+write) miss cycles
system.icache.demand_miss_latency::total   5828804000                       # number of demand (read+write) miss cycles
system.icache.overall_miss_latency::.cpu.inst   5828804000                       # number of overall miss cycles
system.icache.overall_miss_latency::total   5828804000                       # number of overall miss cycles
system.icache.demand_accesses::.cpu.inst     12959861                       # number of demand (read+write) accesses
system.icache.demand_accesses::total         12959861                       # number of demand (read+write) accesses
system.icache.overall_accesses::.cpu.inst     12959861                       # number of overall (read+write) accesses
system.icache.overall_accesses::total        12959861                       # number of overall (read+write) accesses
system.icache.demand_miss_rate::.cpu.inst     0.008021                       # miss rate for demand accesses
system.icache.demand_miss_rate::total        0.008021                       # miss rate for demand accesses
system.icache.overall_miss_rate::.cpu.inst     0.008021                       # miss rate for overall accesses
system.icache.overall_miss_rate::total       0.008021                       # miss rate for overall accesses
system.icache.demand_avg_miss_latency::.cpu.inst 56072.611134                       # average overall miss latency
system.icache.demand_avg_miss_latency::total 56072.611134                       # average overall miss latency
system.icache.overall_avg_miss_latency::.cpu.inst 56072.611134                       # average overall miss latency
system.icache.overall_avg_miss_latency::total 56072.611134                       # average overall miss latency
system.icache.blocked_cycles::no_mshrs              0                       # number of cycles access was blocked
system.icache.blocked_cycles::no_targets            0                       # number of cycles access was blocked
system.icache.blocked::no_mshrs                     0                       # number of cycles access was blocked
system.icache.blocked::no_targets                   0                       # number of cycles access was blocked
system.icache.avg_blocked_cycles::no_mshrs          nan                       # average number of cycles each access was blocked
system.icache.avg_blocked_cycles::no_targets          nan                       # average number of cycles each access was blocked
system.icache.demand_mshr_misses::.cpu.inst       103951                       # number of demand (read+write) MSHR misses
system.icache.demand_mshr_misses::total        103951                       # number of demand (read+write) MSHR misses
system.icache.overall_mshr_misses::.cpu.inst       103951                       # number of overall MSHR misses
system.icache.overall_mshr_misses::total       103951                       # number of overall MSHR misses
system.icache.demand_mshr_miss_latency::.cpu.inst   5620902000                       # number of demand (read+write) MSHR miss cycles
system.icache.demand_mshr_miss_latency::total   5620902000                       # number of demand (read+write) MSHR miss cycles
system.icache.overall_mshr_miss_latency::.cpu.inst   5620902000                       # number of overall MSHR miss cycles
system.icache.overall_mshr_miss_latency::total   5620902000                       # number of overall MSHR miss cycles
system.icache.demand_mshr_miss_rate::.cpu.inst     0.008021                       # mshr miss rate for demand accesses
system.icache.demand_mshr_miss_rate::total     0.008021                       # mshr miss rate for demand accesses
system.icache.overall_mshr_miss_rate::.cpu.inst     0.008021                       # mshr miss rate for overall accesses
system.icache.overall_mshr_miss_rate::total     0.008021                       # mshr miss rate for overall accesses
system.icache.demand_avg_mshr_miss_latency::.cpu.inst 54072.611134                       # average overall mshr miss latency
system.icache.demand_avg_mshr_miss_latency::total 54072.611134                       # average overall mshr miss latency
system.icache.overall_avg_mshr_miss_latency::.cpu.inst 54072.611134                       # average overall mshr miss latency
system.icache.overall_avg_mshr_miss_latency::total 54072.611134                       # average overall mshr miss latency
system.icache.replacements                     103439                       # number of replacements
system.icache.ReadReq_hits::.cpu.inst        12855910                       # number of ReadReq hits
system.icache.ReadReq_hits::total            12855910                       # number of ReadReq hits
system.icache.ReadReq_misses::.cpu.inst        103951                       # number of ReadReq misses
system.icache.ReadReq_misses::total            103951                       # number of ReadReq misses
system.icache.ReadReq_miss_latency::.cpu.inst   5828804000                       # number of ReadReq miss cycles
system.icache.ReadReq_miss_latency::total   5828804000                       # number of ReadReq miss cycles
system.icache.ReadReq_accesses::.cpu.inst     12959861                       # number of ReadReq accesses(hits+misses)
system.icache.ReadReq_accesses::total        12959861                       # number of ReadReq accesses(hits+misses)
system.icache.ReadReq_miss_rate::.cpu.inst     0.008021                       # miss rate for ReadReq accesses
system.icache.ReadReq_miss_rate::total       0.008021                       # miss rate for ReadReq accesses
system.icache.ReadReq_avg_miss_latency::.cpu.inst 56072.611134                       # average ReadReq miss latency
system.icache.ReadReq_avg_miss_latency::total 56072.611134                       # average ReadReq miss latency
system.icache.ReadReq_mshr_misses::.cpu.inst       103951                       # number of ReadReq MSHR misses
system.icache.ReadReq_mshr_misses::total       103951                       # number of ReadReq MSHR misses
system.icache.ReadReq_mshr_miss_latency::.cpu.inst   5620902000                       # number of ReadReq MSHR miss cycles
system.icache.ReadReq_mshr_miss_latency::total   5620902000                       # number of ReadReq MSHR miss cycles
system.icache.ReadReq_mshr_miss_rate::.cpu.inst     0.008021                       # mshr miss rate for ReadReq accesses
system.icache.ReadReq_mshr_miss_rate::total     0.008021                       # mshr miss rate for ReadReq accesses
system.icache.ReadReq_avg_mshr_miss_latency::.cpu.inst 54072.611134                       # average ReadReq mshr miss latency
system.icache.ReadReq_avg_mshr_miss_latency::total 54072.611134                       # average ReadReq mshr miss latency
system.icache.power_state.pwrStateResidencyTicks::UNDEFINED  46010540000                       # Cumulative time (in ticks) in various power states
system.icache.tags.tagsinuse               502.279320                       # Cycle average of tags in use
system.icache.tags.total_refs                12959861                       # Total number of references to valid blocks.
system.icache.tags.sampled_refs                103951                       # Sample count of references to valid blocks.
system.icache.tags.avg_refs                124.672788                       # Average number of references to valid blocks.
system.icache.tags.warmup_cycle                729000                       # Cycle when the warmup percentage was hit.
system.icache.tags.occ_blocks::.cpu.inst   502.279320                       # Average occupied blocks per requestor
system.icache.tags.occ_percent::.cpu.inst     0.981014                       # Average percentage of cache occupancy
system.icache.tags.occ_percent::total        0.981014                       # Average percentage of cache occupancy
system.icache.tags.occ_task_id_blocks::1024          512                       # Occupied blocks per task id
system.icache.tags.age_task_id_blocks_1024::1           93                       # Occupied blocks per task id
system.icache.tags.age_task_id_blocks_1024::2           68                       # Occupied blocks per task id
system.icache.tags.age_task_id_blocks_1024::3           71                       # Occupied blocks per task id
system.icache.tags.age_task_id_blocks_1024::4          280                       # Occupied blocks per task id
system.icache.tags.occ_task_id_percent::1024            1                       # Percentage of cache occupancy per task id
system.icache.tags.tag_accesses              13063812                       # Number of tag accesses
system.icache.tags.data_accesses             13063812                       # Number of data accesses
system.icache.tags.power_state.pwrStateResidencyTicks::UNDEFINED  46010540000                       # Cumulative time (in ticks) in various power states
system.mem_delay.power_state.pwrStateResidencyTicks::UNDEFINED  46010540000                       # Cumulative time (in ticks) in various power states
system.mem_ctrl.bytes_read::.cpu.inst          231552                       # Number of bytes read from this memory
system.mem_ctrl.bytes_read::.cpu.data          469056                       # Number of bytes read from this memory
system.mem_ctrl.bytes_read::total              700608                       # Number of bytes read from this memory
system.mem_ctrl.bytes_inst_read::.cpu.inst       231552                       # Number of instructions bytes read from this memory
system.mem_ctrl.bytes_inst_read::total         231552                       # Number of instructions bytes read from this memory
system.mem_ctrl.bytes_written::.writebacks         3648                       # Number of bytes written to this memory
system.mem_ctrl.bytes_written::total             3648                       # Number of bytes written to this memory
system.mem_ctrl.num_reads::.cpu.inst             3618                       # Number of read requests responded to by this memory
system.mem_ctrl.num_reads::.cpu.data             7329                       # Number of read requests responded to by this memory
system.mem_ctrl.num_reads::total                10947                       # Number of read requests responded to by this memory
system.mem_ctrl.num_writes::.writebacks            57                       # Number of write requests responded to by this memory
system.mem_ctrl.num_writes::total                  57                       # Number of write requests responded to by this memory
system.mem_ctrl.bw_read::.cpu.inst            5032586                       # Total read bandwidth from this memory (bytes/s)
system.mem_ctrl.bw_read::.cpu.data           10194534                       # Total read bandwidth from this memory (bytes/s)
system.mem_ctrl.bw_read::total               15227120                       # Total read bandwidth from this memory (bytes/s)
system.mem_ctrl.bw_inst_read::.cpu.inst       5032586                       # Instruction read bandwidth from this memory (bytes/s)
system.mem_ctrl.bw_inst_read::total           5032586                       # Instruction read bandwidth from this memory (bytes/s)
system.mem_ctrl.bw_write::.writebacks           79286                       # Write bandwidth from this memory (bytes/s)
system.mem_ctrl.bw_write::total                 79286                       # Write bandwidth from this memory (bytes/s)
system.mem_ctrl.bw_total::.writebacks           79286                       # Total bandwidth to/from this memory (bytes/s)
system.mem_ctrl.bw_total::.cpu.inst           5032586                       # Total bandwidth to/from this memory (bytes/s)
system.mem_ctrl.bw_total::.cpu.data          10194534                       # Total bandwidth to/from this memory (bytes/s)
system.mem_ctrl.bw_total::total              15306406                       # Total bandwidth to/from this memory (bytes/s)
system.mem_ctrl.avgPriority_.writebacks::samples        55.00                       # Average QoS priority value for accepted requests
system.mem_ctrl.avgPriority_.cpu.inst::samples      3618.00                       # Average QoS priority value for accepted requests
system.mem_ctrl.avgPriority_.cpu.data::samples      7324.00                       # Average QoS priority value for accepted requests
system.mem_ctrl.priorityMinLatency       0.000000018750                       # per QoS priority minimum request to response latency (s)
system.mem_ctrl.priorityMaxLatency       0.052304012500                       # per QoS priority maximum request to response latency (s)
system.mem_ctrl.numReadWriteTurnArounds             2                       # Number of turnarounds from READ to WRITE
system.mem_ctrl.numWriteReadTurnArounds             2                       # Number of turnarounds from WRITE to READ
system.mem_ctrl.numStayReadState                33757                       # Number of times bus staying in READ state
system.mem_ctrl.numStayWriteState                  35                       # Number of times bus staying in WRITE state
system.mem_ctrl.readReqs                        10947                       # Number of read requests accepted
system.mem_ctrl.writeReqs                          57                       # Number of write requests accepted
system.mem_ctrl.readBursts                      10947                       # Number of DRAM read bursts, including those serviced by the write queue
system.mem_ctrl.writeBursts                        57                       # Number of DRAM write bursts, including those merged in the write queue
system.mem_ctrl.servicedByWrQ                       5                       # Number of DRAM read bursts serviced by the write queue
system.mem_ctrl.mergedWrBursts                      2                       # Number of DRAM write bursts merged with an existing one
system.mem_ctrl.neitherReadNorWriteReqs             0                       # Number of requests that are neither read nor write
system.mem_ctrl.perBankRdBursts::0                886                       # Per bank write bursts
system.mem_ctrl.perBankRdBursts::1                882                       # Per bank write bursts
system.mem_ctrl.perBankRdBursts::2               1158                       # Per bank write bursts
system.mem_ctrl.perBankRdBursts::3                755                       # Per bank write bursts
system.mem_ctrl.perBankRdBursts::4                696                       # Per bank write bursts
system.mem_ctrl.perBankRdBursts::5                619                       # Per bank write bursts
system.mem_ctrl.perBankRdBursts::6                535                       # Per bank write bursts
system.mem_ctrl.perBankRdBursts::7                418                       # Per bank write bursts
system.mem_ctrl.perBankRdBursts::8                526                       # Per bank write bursts
system.mem_ctrl.perBankRdBursts::9                624                       # Per bank write bursts
system.mem_ctrl.perBankRdBursts::10               952                       # Per bank write bursts
system.mem_ctrl.perBankRdBursts::11               470                       # Per bank write bursts
system.mem_ctrl.perBankRdBursts::12               473                       # Per bank write bursts
system.mem_ctrl.perBankRdBursts::13               536                       # Per bank write bursts
system.mem_ctrl.perBankRdBursts::14               628                       # Per bank write bursts
system.mem_ctrl.perBankRdBursts::15               784                       # Per bank write bursts
system.mem_ctrl.perBankWrBursts::0                  0                       # Per bank write bursts
system.mem_ctrl.perBankWrBursts::1                  0                       # Per bank write bursts
system.mem_ctrl.perBankWrBursts::2                 32                       # Per bank write bursts
system.mem_ctrl.perBankWrBursts::3                  1                       # Per bank write bursts
system.mem_ctrl.perBankWrBursts::4                  1                       # Per bank write bursts
system.mem_ctrl.perBankWrBursts::5                  0                       # Per bank write bursts
system.mem_ctrl.perBankWrBursts::6                  0                       # Per bank write bursts
system.mem_ctrl.perBankWrBursts::7                  1                       # Per bank write bursts
system.mem_ctrl.perBankWrBursts::8                  1                       # Per bank write bursts
system.mem_ctrl.perBankWrBursts::9                  0                       # Per bank write bursts
system.mem_ctrl.perBankWrBursts::10                 0                       # Per bank write bursts
system.mem_ctrl.perBankWrBursts::11                 0                       # Per bank write bursts
system.mem_ctrl.perBankWrBursts::12                 0                       # Per bank write bursts
system.mem_ctrl.perBankWrBursts::13                 0                       # Per bank write bursts
system.mem_ctrl.perBankWrBursts::14                 0                       # Per bank write bursts
system.mem_ctrl.perBankWrBursts::15                 0                       # Per bank write bursts
system.mem_ctrl.avgRdQLen                        1.00                       # Average read queue length when enqueuing
system.mem_ctrl.avgWrQLen                       19.42                       # Average write queue length when enqueuing
system.mem_ctrl.totQLat                     136025000                       # Total ticks spent queuing
system.mem_ctrl.totBusLat                    54710000                       # Total ticks spent in databus transfers
system.mem_ctrl.totMemAccLat                341187500                       # Total ticks spent from burst creation until serviced by the DRAM
system.mem_ctrl.avgQLat                      12431.46                       # Average queueing delay per DRAM burst
system.mem_ctrl.avgBusLat                     5000.00                       # Average bus latency per DRAM burst
system.mem_ctrl.avgMemAccLat                 31181.46                       # Average memory access latency per DRAM burst
system.mem_ctrl.numRdRetry                          0                       # Number of times read queue was full causing retry
system.mem_ctrl.numWrRetry                          0                       # Number of times write queue was full causing retry
system.mem_ctrl.readRowHits                      5027                       # Number of row buffer hits during reads
system.mem_ctrl.writeRowHits                       29                       # Number of row buffer hits during writes
system.mem_ctrl.readRowHitRate                  45.94                       # Row buffer hit rate for reads
system.mem_ctrl.writeRowHitRate                 52.73                       # Row buffer hit rate for writes
system.mem_ctrl.readPktSize::0                      0                       # Read request sizes (log2)
system.mem_ctrl.readPktSize::1                      0                       # Read request sizes (log2)
system.mem_ctrl.readPktSize::2                      0                       # Read request sizes (log2)
system.mem_ctrl.readPktSize::3                      0                       # Read request sizes (log2)
system.mem_ctrl.readPktSize::4                      0                       # Read request sizes (log2)
system.mem_ctrl.readPktSize::5                      0                       # Read request sizes (log2)
system.mem_ctrl.readPktSize::6                  10947                       # Read request sizes (log2)
system.mem_ctrl.writePktSize::0                     0                       # Write request sizes (log2)
system.mem_ctrl.writePktSize::1                     0                       # Write request sizes (log2)
system.mem_ctrl.writePktSize::2                     0                       # Write request sizes (log2)
system.mem_ctrl.writePktSize::3                     0                       # Write request sizes (log2)
system.mem_ctrl.writePktSize::4                     0                       # Write request sizes (log2)
system.mem_ctrl.writePktSize::5                     0                       # Write request sizes (log2)
system.mem_ctrl.writePktSize::6                    57                       # Write request sizes (log2)
system.mem_ctrl.rdQLenPdf::0                    10933                       # What read queue length does an incoming req see
system.mem_ctrl.rdQLenPdf::1                        9                       # What read queue length does an incoming req see
system.mem_ctrl.rdQLenPdf::2                        0                       # What read queue length does an incoming req see
system.mem_ctrl.rdQLenPdf::3                        0                       # What read queue length does an incoming req see
system.mem_ctrl.rdQLenPdf::4                        0                       # What read queue length does an incoming req see
system.mem_ctrl.rdQLenPdf::5                        0                       # What read queue length does an incoming req see
system.mem_ctrl.rdQLenPdf::6                        0                       # What read queue length does an incoming req see
system.mem_ctrl.rdQLenPdf::7                        0                       # What read queue length does an incoming req see
system.mem_ctrl.rdQLenPdf::8                        0                       # What read queue length does an incoming req see
system.mem_ctrl.rdQLenPdf::9                        0                       # What read queue length does an incoming req see
system.mem_ctrl.rdQLenPdf::10                       0                       # What read queue length does an incoming req see
system.mem_ctrl.rdQLenPdf::11                       0                       # What read queue length does an incoming req see
system.mem_ctrl.rdQLenPdf::12                       0                       # What read queue length does an incoming req see
system.mem_ctrl.rdQLenPdf::13                       0                       # What read queue length does an incoming req see
system.mem_ctrl.rdQLenPdf::14                       0                       # What read queue length does an incoming req see
system.mem_ctrl.rdQLenPdf::15                       0                       # What read queue length does an incoming req see
system.mem_ctrl.rdQLenPdf::16                       0                       # What read queue length does an incoming req see
system.mem_ctrl.rdQLenPdf::17                       0                       # What read queue length does an incoming req see
system.mem_ctrl.rdQLenPdf::18                       0                       # What read queue length does an incoming req see
system.mem_ctrl.rdQLenPdf::19                       0                       # What read queue length does an incoming req see
system.mem_ctrl.rdQLenPdf::20                       0                       # What read queue length does an incoming req see
system.mem_ctrl.rdQLenPdf::21                       0                       # What read queue length does an incoming req see
system.mem_ctrl.rdQLenPdf::22                       0                       # What read queue length does an incoming req see
system.mem_ctrl.rdQLenPdf::23                       0                       # What read queue length does an incoming req see
system.mem_ctrl.rdQLenPdf::24                       0                       # What read queue length does an incoming req see
system.mem_ctrl.rdQLenPdf::25                       0                       # What read queue length does an incoming req see
system.mem_ctrl.rdQLenPdf::26                       0                       # What read queue length does an incoming req see
system.mem_ctrl.rdQLenPdf::27                       0                       # What read queue length does an incoming req see
system.mem_ctrl.rdQLenPdf::28                       0                       # What read queue length does an incoming req see
system.mem_ctrl.rdQLenPdf::29                       0                       # What read queue length does an incoming req see
system.mem_ctrl.rdQLenPdf::30                       0                       # What read queue length does an incoming req see
system.mem_ctrl.rdQLenPdf::31                       0                       # What read queue length does an incoming req see
system.mem_ctrl.wrQLenPdf::0                        1                       # What write queue length does an incoming req see
system.mem_ctrl.wrQLenPdf::1                        1                       # What write queue length does an incoming req see
system.mem_ctrl.wrQLenPdf::2                        1                       # What write queue length does an incoming req see
system.mem_ctrl.wrQLenPdf::3                        1                       # What write queue length does an incoming req see
system.mem_ctrl.wrQLenPdf::4                        1                       # What write queue length does an incoming req see
system.mem_ctrl.wrQLenPdf::5                        1                       # What write queue length does an incoming req see
system.mem_ctrl.wrQLenPdf::6                        1                       # What write queue length does an incoming req see
system.mem_ctrl.wrQLenPdf::7                        1                       # What write queue length does an incoming req see
system.mem_ctrl.wrQLenPdf::8                        1                       # What write queue length does an incoming req see
system.mem_ctrl.wrQLenPdf::9                        1                       # What write queue length does an incoming req see
system.mem_ctrl.wrQLenPdf::10                       1                       # What write queue length does an incoming req see
system.mem_ctrl.wrQLenPdf::11                       1                       # What write queue length does an incoming req see
system.mem_ctrl.wrQLenPdf::12                       1                       # What write queue length does an incoming req see
system.mem_ctrl.wrQLenPdf::13                       1                       # What write queue length does an incoming req see
system.mem_ctrl.wrQLenPdf::14                       1                       # What write queue length does an incoming req see
system.mem_ctrl.wrQLenPdf::15                       3                       # What write queue length does an incoming req see
system.mem_ctrl.wrQLenPdf::16                       3                       # What write queue length does an incoming req see
system.mem_ctrl.wrQLenPdf::17                       3                       # What write queue length does an incoming req see
system.mem_ctrl.wrQLenPdf::18                       3                       # What write queue length does an incoming req see
system.mem_ctrl.wrQLenPdf::19                       2                       # What write queue length does an incoming req see
system.mem_ctrl.wrQLenPdf::20                       2                       # What write queue length does an incoming req see
system.mem_ctrl.wrQLenPdf::21                       2                       # What write queue length does an incoming req see
system.mem_ctrl.wrQLenPdf::22                       2                       # What write queue length does an incoming req see
system.mem_ctrl.wrQLenPdf::23                       2                       # What write queue length does an incoming req see
system.mem_ctrl.wrQLenPdf::24                       2                       # What write queue length does an incoming req see
system.mem_ctrl.wrQLenPdf::25                       2                       # What write queue length does an incoming req see
system.mem_ctrl.wrQLenPdf::26                       2                       # What write queue length does an incoming req see
system.mem_ctrl.wrQLenPdf::27                       2                       # What write queue length does an incoming req see
system.mem_ctrl.wrQLenPdf::28                       2                       # What write queue length does an incoming req see
system.mem_ctrl.wrQLenPdf::29                       2                       # What write queue length does an incoming req see
system.mem_ctrl.wrQLenPdf::30                       2                       # What write queue length does an incoming req see
system.mem_ctrl.wrQLenPdf::31                       2                       # What write queue length does an incoming req see
system.mem_ctrl.wrQLenPdf::32                       2                       # What write queue length does an incoming req see
system.mem_ctrl.wrQLenPdf::33                       0                       # What write queue length does an incoming req see
system.mem_ctrl.wrQLenPdf::34                       0                       # What write queue length does an incoming req see
system.mem_ctrl.wrQLenPdf::35                       0                       # What write queue length does an incoming req see
system.mem_ctrl.wrQLenPdf::36                       0                       # What write queue length does an incoming req see
system.mem_ctrl.wrQLenPdf::37                       0                       # What write queue length does an incoming req see
system.mem_ctrl.wrQLenPdf::38                       0                       # What write queue length does an incoming req see
system.mem_ctrl.wrQLenPdf::39                       0                       # What write queue length does an incoming req see
system.mem_ctrl.wrQLenPdf::40                       0                       # What write queue length does an incoming req see
system.mem_ctrl.wrQLenPdf::41                       0                       # What write queue length does an incoming req see
system.mem_ctrl.wrQLenPdf::42                       0                       # What write queue length does an incoming req see
system.mem_ctrl.wrQLenPdf::43                       0                       # What write queue length does an incoming req see
system.mem_ctrl.wrQLenPdf::44                       0                       # What write queue length does an incoming req see
system.mem_ctrl.wrQLenPdf::45                       0                       # What write queue length does an incoming req see
system.mem_ctrl.wrQLenPdf::46                       0                       # What write queue length does an incoming req see
system.mem_ctrl.wrQLenPdf::47                       0                       # What write queue length does an incoming req see
system.mem_ctrl.wrQLenPdf::48                       0                       # What write queue length does an incoming req see
system.mem_ctrl.wrQLenPdf::49                       0                       # What write queue length does an incoming req see
system.mem_ctrl.wrQLenPdf::50                       0                       # What write queue length does an incoming req see
system.mem_ctrl.wrQLenPdf::51                       0                       # What write queue length does an incoming req see
system.mem_ctrl.wrQLenPdf::52                       0                       # What write queue length does an incoming req see
system.mem_ctrl.wrQLenPdf::53                       0                       # What write queue length does an incoming req see
system.mem_ctrl.wrQLenPdf::54                       0                       # What write queue length does an incoming req see
system.mem_ctrl.wrQLenPdf::55                       0                       # What write queue length does an incoming req see
system.mem_ctrl.wrQLenPdf::56                       0                       # What write queue length does an incoming req see
system.mem_ctrl.wrQLenPdf::57                       0                       # What write queue length does an incoming req see
system.mem_ctrl.wrQLenPdf::58                       0                       # What write queue length does an incoming req see
system.mem_ctrl.wrQLenPdf::59                       0                       # What write queue length does an incoming req see
system.mem_ctrl.wrQLenPdf::60                       0                       # What write queue length does an incoming req see
system.mem_ctrl.wrQLenPdf::61                       0                       # What write queue length does an incoming req see
system.mem_ctrl.wrQLenPdf::62                       0                       # What write queue length does an incoming req see
system.mem_ctrl.wrQLenPdf::63                       0                       # What write queue length does an incoming req see
system.mem_ctrl.bytesPerActivate::samples         5922                       # Bytes accessed per row activation
system.mem_ctrl.bytesPerActivate::mean     118.641000                       # Bytes accessed per row activation
system.mem_ctrl.bytesPerActivate::gmean     98.446878                       # Bytes accessed per row activation
system.mem_ctrl.bytesPerActivate::stdev     88.270675                       # Bytes accessed per row activation
system.mem_ctrl.bytesPerActivate::0-127          3412     57.62%     57.62% # Bytes accessed per row activation
system.mem_ctrl.bytesPerActivate::128-255         1903     32.13%     89.75% # Bytes accessed per row activation
system.mem_ctrl.bytesPerActivate::256-383          400      6.75%     96.50% # Bytes accessed per row activation
system.mem_ctrl.bytesPerActivate::384-511          175      2.96%     99.46% # Bytes accessed per row activation
system.mem_ctrl.bytesPerActivate::512-639           20      0.34%     99.80% # Bytes accessed per row activation
system.mem_ctrl.bytesPerActivate::640-767           10      0.17%     99.97% # Bytes accessed per row activation
system.mem_ctrl.bytesPerActivate::768-895            1      0.02%     99.98% # Bytes accessed per row activation
system.mem_ctrl.bytesPerActivate::1024-1151            1      0.02%    100.00% # Bytes accessed per row activation
system.mem_ctrl.bytesPerActivate::total          5922                       # Bytes accessed per row activation
system.mem_ctrl.rdPerTurnAround::samples            2                       # Reads before turning the bus around for writes
system.mem_ctrl.rdPerTurnAround::mean            4749                       # Reads before turning the bus around for writes
system.mem_ctrl.rdPerTurnAround::gmean    4738.674076                       # Reads before turning the bus around for writes
system.mem_ctrl.rdPerTurnAround::stdev     442.648845                       # Reads before turning the bus around for writes
system.mem_ctrl.rdPerTurnAround::4352-4607            1     50.00%     50.00% # Reads before turning the bus around for writes
system.mem_ctrl.rdPerTurnAround::4864-5119            1     50.00%    100.00% # Reads before turning the bus around for writes
system.mem_ctrl.rdPerTurnAround::total              2                       # Reads before turning the bus around for writes
system.mem_ctrl.wrPerTurnAround::samples            2                       # Writes before turning the bus around for reads
system.mem_ctrl.wrPerTurnAround::mean              18                       # Writes before turning the bus around for reads
system.mem_ctrl.wrPerTurnAround::gmean      18.000000                       # Writes before turning the bus around for reads
system.mem_ctrl.wrPerTurnAround::18                 2    100.00%    100.00% # Writes before turning the bus around for reads
system.mem_ctrl.wrPerTurnAround::total              2                       # Writes before turning the bus around for reads
system.mem_ctrl.bytesReadDRAM                  700288                       # Total number of bytes read from DRAM
system.mem_ctrl.bytesReadWrQ                      320                       # Total number of bytes read from write queue
system.mem_ctrl.bytesWritten                     2304                       # Total number of bytes written to DRAM
system.mem_ctrl.bytesReadSys                   700608                       # Total read bytes from the system interface side
system.mem_ctrl.bytesWrittenSys                  3648                       # Total written bytes from the system interface side
system.mem_ctrl.avgRdBW                         15.22                       # Average DRAM read bandwidth in MiByte/s
system.mem_ctrl.avgWrBW                          0.05                       # Average achieved write bandwidth in MiByte/s
system.mem_ctrl.avgRdBWSys                      15.23                       # Average system read bandwidth in MiByte/s
system.mem_ctrl.avgWrBWSys                       0.08                       # Average system write bandwidth in MiByte/s
system.mem_ctrl.peakBW                       12800.00                       # Theoretical peak bandwidth in MiByte/s
system.mem_ctrl.busUtil                          0.12                       # Data bus utilization in percentage
system.mem_ctrl.busUtilRead                      0.12                       # Data bus utilization in percentage for reads
system.mem_ctrl.busUtilWrite                     0.00                       # Data bus utilization in percentage for writes
system.mem_ctrl.totGap                    45999753000                       # Total gap between requests
system.mem_ctrl.avgGap                     4180275.63                       # Average gap between requests
system.mem_ctrl.masterReadBytes::.cpu.inst       231552                       # Per-master bytes read from memory
system.mem_ctrl.masterReadBytes::.cpu.data       468736                       # Per-master bytes read from memory
system.mem_ctrl.masterWriteBytes::.writebacks         2304                       # Per-master bytes write to memory
system.mem_ctrl.masterReadRate::.cpu.inst 5032586.011813814752                       # Per-master bytes read from memory rate (Bytes/sec)
system.mem_ctrl.masterReadRate::.cpu.data 10187578.759127799422                       # Per-master bytes read from memory rate (Bytes/sec)
system.mem_ctrl.masterWriteRate::.writebacks 50075.482704615068                       # Per-master bytes write to memory rate (Bytes/sec)
system.mem_ctrl.masterReadAccesses::.cpu.inst         3618                       # Per-master read serviced memory accesses
system.mem_ctrl.masterReadAccesses::.cpu.data         7329                       # Per-master read serviced memory accesses
system.mem_ctrl.masterWriteAccesses::.writebacks           57                       # Per-master write serviced memory accesses
system.mem_ctrl.masterReadTotalLat::.cpu.inst    114673750                       # Per-master read total memory access latency
system.mem_ctrl.masterReadTotalLat::.cpu.data    226513750                       # Per-master read total memory access latency
system.mem_ctrl.masterWriteTotalLat::.writebacks 487018288750                       # Per-master write total memory access latency
system.mem_ctrl.masterReadAvgLat::.cpu.inst     31695.34                       # Per-master read average memory access latency
system.mem_ctrl.masterReadAvgLat::.cpu.data     30906.50                       # Per-master read average memory access latency
system.mem_ctrl.masterWriteAvgLat::.writebacks 8544180504.39                       # Per-master write average memory access latency
system.mem_ctrl.pageHitRate                     45.98                       # Row buffer hit rate, read and write combined
system.mem_ctrl.rank1.actEnergy              20641740                       # Energy for activate commands per rank (pJ)
system.mem_ctrl.rank1.preEnergy              10971345                       # Energy for precharge commands per rank (pJ)
system.mem_ctrl.rank1.readEnergy             35650020                       # Energy for read commands per rank (pJ)
system.mem_ctrl.rank1.writeEnergy                5220                       # Energy for write commands per rank (pJ)
system.mem_ctrl.rank1.refreshEnergy      3631907760.000000                       # Energy for refresh commands per rank (pJ)
system.mem_ctrl.rank1.actBackEnergy        5979910470                       # Energy for active background per rank (pJ)
system.mem_ctrl.rank1.preBackEnergy       12632333280                       # Energy for precharge background per rank (pJ)
system.mem_ctrl.rank1.actPowerDownEnergy            0                       # Energy for active power-down per rank (pJ)
system.mem_ctrl.rank1.prePowerDownEnergy            0                       # Energy for precharge power-down per rank (pJ)
system.mem_ctrl.rank1.selfRefreshEnergy             0                       # Energy for self refresh per rank (pJ)
system.mem_ctrl.rank1.totalEnergy         22311419835                       # Total energy per rank (pJ)
system.mem_ctrl.rank1.averagePower         484.919756                       # Core power per rank (mW)
system.mem_ctrl.rank1.totalIdleTime                 0                       # Total Idle time Per DRAM Rank
system.mem_ctrl.rank1.memoryStateTime::IDLE  32781269500                       # Time in different power states
system.mem_ctrl.rank1.memoryStateTime::REF   1536340000                       # Time in different power states
system.mem_ctrl.rank1.memoryStateTime::SREF            0                       # Time in different power states
system.mem_ctrl.rank1.memoryStateTime::PRE_PDN            0                       # Time in different power states
system.mem_ctrl.rank1.memoryStateTime::ACT  11692930500                       # Time in different power states
system.mem_ctrl.rank1.memoryStateTime::ACT_PDN            0                       # Time in different power states
system.mem_ctrl.rank0.actEnergy              21641340                       # Energy for activate commands per rank (pJ)
system.mem_ctrl.rank0.preEnergy              11502645                       # Energy for precharge commands per rank (pJ)
system.mem_ctrl.rank0.readEnergy             42475860                       # Energy for read commands per rank (pJ)
system.mem_ctrl.rank0.writeEnergy              182700                       # Energy for write commands per rank (pJ)
system.mem_ctrl.rank0.refreshEnergy      3631907760.000000                       # Energy for refresh commands per rank (pJ)
system.mem_ctrl.rank0.actBackEnergy        5863636170                       # Energy for active background per rank (pJ)
system.mem_ctrl.rank0.preBackEnergy       12730248480                       # Energy for precharge background per rank (pJ)
system.mem_ctrl.rank0.actPowerDownEnergy            0                       # Energy for active power-down per rank (pJ)
system.mem_ctrl.rank0.prePowerDownEnergy            0                       # Energy for precharge power-down per rank (pJ)
system.mem_ctrl.rank0.selfRefreshEnergy             0                       # Energy for self refresh per rank (pJ)
system.mem_ctrl.rank0.totalEnergy         22301594955                       # Total energy per rank (pJ)
system.mem_ctrl.rank0.averagePower         484.706221                       # Core power per rank (mW)
system.mem_ctrl.rank0.totalIdleTime                 0                       # Total Idle time Per DRAM Rank
system.mem_ctrl.rank0.memoryStateTime::IDLE  33036302250                       # Time in different power states
system.mem_ctrl.rank0.memoryStateTime::REF   1536340000                       # Time in different power states
system.mem_ctrl.rank0.memoryStateTime::SREF            0                       # Time in different power states
system.mem_ctrl.rank0.memoryStateTime::PRE_PDN            0                       # Time in different power states
system.mem_ctrl.rank0.memoryStateTime::ACT  11437897750                       # Time in different power states
system.mem_ctrl.rank0.memoryStateTime::ACT_PDN            0                       # Time in different power states
system.mem_ctrl.power_state.pwrStateResidencyTicks::UNDEFINED  46010540000                       # Cumulative time (in ticks) in various power states
system.l2cache.demand_hits::.cpu.inst           94605                       # number of demand (read+write) hits
system.l2cache.demand_hits::.cpu.data           52364                       # number of demand (read+write) hits
system.l2cache.demand_hits::total              146969                       # number of demand (read+write) hits
system.l2cache.overall_hits::.cpu.inst          94605                       # number of overall hits
system.l2cache.overall_hits::.cpu.data          52364                       # number of overall hits
system.l2cache.overall_hits::total             146969                       # number of overall hits
system.l2cache.demand_misses::.cpu.inst          9346                       # number of demand (read+write) misses
system.l2cache.demand_misses::.cpu.data         10564                       # number of demand (read+write) misses
system.l2cache.demand_misses::total             19910                       # number of demand (read+write) misses
system.l2cache.overall_misses::.cpu.inst         9346                       # number of overall misses
system.l2cache.overall_misses::.cpu.data        10564                       # number of overall misses
system.l2cache.overall_misses::total            19910                       # number of overall misses
system.l2cache.demand_miss_latency::.cpu.inst   3321570000                       # number of demand (read+write) miss cycles
system.l2cache.demand_miss_latency::.cpu.data   5649343000                       # number of demand (read+write) miss cycles
system.l2cache.demand_miss_latency::total   8970913000                       # number of demand (read+write) miss cycles
system.l2cache.overall_miss_latency::.cpu.inst   3321570000                       # number of overall miss cycles
system.l2cache.overall_miss_latency::.cpu.data   5649343000                       # number of overall miss cycles
system.l2cache.overall_miss_latency::total   8970913000                       # number of overall miss cycles
system.l2cache.demand_accesses::.cpu.inst       103951                       # number of demand (read+write) accesses
system.l2cache.demand_accesses::.cpu.data        62928                       # number of demand (read+write) accesses
system.l2cache.demand_accesses::total          166879                       # number of demand (read+write) accesses
system.l2cache.overall_accesses::.cpu.inst       103951                       # number of overall (read+write) accesses
system.l2cache.overall_accesses::.cpu.data        62928                       # number of overall (read+write) accesses
system.l2cache.overall_accesses::total         166879                       # number of overall (read+write) accesses
system.l2cache.demand_miss_rate::.cpu.inst     0.089908                       # miss rate for demand accesses
system.l2cache.demand_miss_rate::.cpu.data     0.167874                       # miss rate for demand accesses
system.l2cache.demand_miss_rate::total       0.119308                       # miss rate for demand accesses
system.l2cache.overall_miss_rate::.cpu.inst     0.089908                       # miss rate for overall accesses
system.l2cache.overall_miss_rate::.cpu.data     0.167874                       # miss rate for overall accesses
system.l2cache.overall_miss_rate::total      0.119308                       # miss rate for overall accesses
system.l2cache.demand_avg_miss_latency::.cpu.inst 355400.171196                       # average overall miss latency
system.l2cache.demand_avg_miss_latency::.cpu.data 534773.097312                       # average overall miss latency
system.l2cache.demand_avg_miss_latency::total 450573.229533                       # average overall miss latency
system.l2cache.overall_avg_miss_latency::.cpu.inst 355400.171196                       # average overall miss latency
system.l2cache.overall_avg_miss_latency::.cpu.data 534773.097312                       # average overall miss latency
system.l2cache.overall_avg_miss_latency::total 450573.229533                       # average overall miss latency
system.l2cache.blocked_cycles::no_mshrs             0                       # number of cycles access was blocked
system.l2cache.blocked_cycles::no_targets            0                       # number of cycles access was blocked
system.l2cache.blocked::no_mshrs                    0                       # number of cycles access was blocked
system.l2cache.blocked::no_targets                  0                       # number of cycles access was blocked
system.l2cache.avg_blocked_cycles::no_mshrs          nan                       # average number of cycles each access was blocked
system.l2cache.avg_blocked_cycles::no_targets          nan                       # average number of cycles each access was blocked
system.l2cache.writebacks::.writebacks           4767                       # number of writebacks
system.l2cache.writebacks::total                 4767                       # number of writebacks
system.l2cache.demand_mshr_misses::.cpu.inst         9346                       # number of demand (read+write) MSHR misses
system.l2cache.demand_mshr_misses::.cpu.data        10564                       # number of demand (read+write) MSHR misses
system.l2cache.demand_mshr_misses::total        19910                       # number of demand (read+write) MSHR misses
system.l2cache.overall_mshr_misses::.cpu.inst         9346                       # number of overall MSHR misses
system.l2cache.overall_mshr_misses::.cpu.data        10564                       # number of overall MSHR misses
system.l2cache.overall_mshr_misses::total        19910                       # number of overall MSHR misses
system.l2cache.demand_mshr_miss_latency::.cpu.inst   3134650000                       # number of demand (read+write) MSHR miss cycles
system.l2cache.demand_mshr_miss_latency::.cpu.data   5438063000                       # number of demand (read+write) MSHR miss cycles
system.l2cache.demand_mshr_miss_latency::total   8572713000                       # number of demand (read+write) MSHR miss cycles
system.l2cache.overall_mshr_miss_latency::.cpu.inst   3134650000                       # number of overall MSHR miss cycles
system.l2cache.overall_mshr_miss_latency::.cpu.data   5438063000                       # number of overall MSHR miss cycles
system.l2cache.overall_mshr_miss_latency::total   8572713000                       # number of overall MSHR miss cycles
system.l2cache.demand_mshr_miss_rate::.cpu.inst     0.089908                       # mshr miss rate for demand accesses
system.l2cache.demand_mshr_miss_rate::.cpu.data     0.167874                       # mshr miss rate for demand accesses
system.l2cache.demand_mshr_miss_rate::total     0.119308                       # mshr miss rate for demand accesses
system.l2cache.overall_mshr_miss_rate::.cpu.inst     0.089908                       # mshr miss rate for overall accesses
system.l2cache.overall_mshr_miss_rate::.cpu.data     0.167874                       # mshr miss rate for overall accesses
system.l2cache.overall_mshr_miss_rate::total     0.119308                       # mshr miss rate for overall accesses
system.l2cache.demand_avg_mshr_miss_latency::.cpu.inst 335400.171196                       # average overall mshr miss latency
system.l2cache.demand_avg_mshr_miss_latency::.cpu.data 514773.097312                       # average overall mshr miss latency
system.l2cache.demand_avg_mshr_miss_latency::total 430573.229533                       # average overall mshr miss latency
system.l2cache.overall_avg_mshr_miss_latency::.cpu.inst 335400.171196                       # average overall mshr miss latency
system.l2cache.overall_avg_mshr_miss_latency::.cpu.data 514773.097312                       # average overall mshr miss latency
system.l2cache.overall_avg_mshr_miss_latency::total 430573.229533                       # average overall mshr miss latency
system.l2cache.replacements                     20676                       # number of replacements
system.l2cache.WritebackDirty_hits::.writebacks        50709                       # number of WritebackDirty hits
system.l2cache.WritebackDirty_hits::total        50709                       # number of WritebackDirty hits
system.l2cache.WritebackDirty_accesses::.writebacks        50709                       # number of WritebackDirty accesses(hits+misses)
system.l2cache.WritebackDirty_accesses::total        50709                       # number of WritebackDirty accesses(hits+misses)
system.l2cache.CleanEvict_mshr_misses::.writebacks         7162                       # number of CleanEvict MSHR misses
system.l2cache.CleanEvict_mshr_misses::total         7162                       # number of CleanEvict MSHR misses
system.l2cache.CleanEvict_mshr_miss_rate::.writebacks          inf                       # mshr miss rate for CleanEvict accesses
system.l2cache.CleanEvict_mshr_miss_rate::total          inf                       # mshr miss rate for CleanEvict accesses
system.l2cache.UpgradeReq_hits::.cpu.data          281                       # number of UpgradeReq hits
system.l2cache.UpgradeReq_hits::total             281                       # number of UpgradeReq hits
system.l2cache.UpgradeReq_misses::.cpu.data           43                       # number of UpgradeReq misses
system.l2cache.UpgradeReq_misses::total            43                       # number of UpgradeReq misses
system.l2cache.UpgradeReq_miss_latency::.cpu.data       276000                       # number of UpgradeReq miss cycles
system.l2cache.UpgradeReq_miss_latency::total       276000                       # number of UpgradeReq miss cycles
system.l2cache.UpgradeReq_accesses::.cpu.data          324                       # number of UpgradeReq accesses(hits+misses)
system.l2cache.UpgradeReq_accesses::total          324                       # number of UpgradeReq accesses(hits+misses)
system.l2cache.UpgradeReq_miss_rate::.cpu.data     0.132716                       # miss rate for UpgradeReq accesses
system.l2cache.UpgradeReq_miss_rate::total     0.132716                       # miss rate for UpgradeReq accesses
system.l2cache.UpgradeReq_avg_miss_latency::.cpu.data  6418.604651                       # average UpgradeReq miss latency
system.l2cache.UpgradeReq_avg_miss_latency::total  6418.604651                       # average UpgradeReq miss latency
system.l2cache.UpgradeReq_mshr_misses::.cpu.data           43                       # number of UpgradeReq MSHR misses
system.l2cache.UpgradeReq_mshr_misses::total           43                       # number of UpgradeReq MSHR misses
system.l2cache.UpgradeReq_mshr_miss_latency::.cpu.data      3278000                       # number of UpgradeReq MSHR miss cycles
system.l2cache.UpgradeReq_mshr_miss_latency::total      3278000                       # number of UpgradeReq MSHR miss cycles
system.l2cache.UpgradeReq_mshr_miss_rate::.cpu.data     0.132716                       # mshr miss rate for UpgradeReq accesses
system.l2cache.UpgradeReq_mshr_miss_rate::total     0.132716                       # mshr miss rate for UpgradeReq accesses
system.l2cache.UpgradeReq_avg_mshr_miss_latency::.cpu.data 76232.558140                       # average UpgradeReq mshr miss latency
system.l2cache.UpgradeReq_avg_mshr_miss_latency::total 76232.558140                       # average UpgradeReq mshr miss latency
system.l2cache.ReadExReq_hits::.cpu.data         8365                       # number of ReadExReq hits
system.l2cache.ReadExReq_hits::total             8365                       # number of ReadExReq hits
system.l2cache.ReadExReq_misses::.cpu.data         6461                       # number of ReadExReq misses
system.l2cache.ReadExReq_misses::total           6461                       # number of ReadExReq misses
system.l2cache.ReadExReq_miss_latency::.cpu.data   4458243000                       # number of ReadExReq miss cycles
system.l2cache.ReadExReq_miss_latency::total   4458243000                       # number of ReadExReq miss cycles
system.l2cache.ReadExReq_accesses::.cpu.data        14826                       # number of ReadExReq accesses(hits+misses)
system.l2cache.ReadExReq_accesses::total        14826                       # number of ReadExReq accesses(hits+misses)
system.l2cache.ReadExReq_miss_rate::.cpu.data     0.435788                       # miss rate for ReadExReq accesses
system.l2cache.ReadExReq_miss_rate::total     0.435788                       # miss rate for ReadExReq accesses
system.l2cache.ReadExReq_avg_miss_latency::.cpu.data 690023.680545                       # average ReadExReq miss latency
system.l2cache.ReadExReq_avg_miss_latency::total 690023.680545                       # average ReadExReq miss latency
system.l2cache.ReadExReq_mshr_misses::.cpu.data         6461                       # number of ReadExReq MSHR misses
system.l2cache.ReadExReq_mshr_misses::total         6461                       # number of ReadExReq MSHR misses
system.l2cache.ReadExReq_mshr_miss_latency::.cpu.data   4329023000                       # number of ReadExReq MSHR miss cycles
system.l2cache.ReadExReq_mshr_miss_latency::total   4329023000                       # number of ReadExReq MSHR miss cycles
system.l2cache.ReadExReq_mshr_miss_rate::.cpu.data     0.435788                       # mshr miss rate for ReadExReq accesses
system.l2cache.ReadExReq_mshr_miss_rate::total     0.435788                       # mshr miss rate for ReadExReq accesses
system.l2cache.ReadExReq_avg_mshr_miss_latency::.cpu.data 670023.680545                       # average ReadExReq mshr miss latency
system.l2cache.ReadExReq_avg_mshr_miss_latency::total 670023.680545                       # average ReadExReq mshr miss latency
system.l2cache.ReadSharedReq_hits::.cpu.inst        94605                       # number of ReadSharedReq hits
system.l2cache.ReadSharedReq_hits::.cpu.data        43999                       # number of ReadSharedReq hits
system.l2cache.ReadSharedReq_hits::total       138604                       # number of ReadSharedReq hits
system.l2cache.ReadSharedReq_misses::.cpu.inst         9346                       # number of ReadSharedReq misses
system.l2cache.ReadSharedReq_misses::.cpu.data         4103                       # number of ReadSharedReq misses
system.l2cache.ReadSharedReq_misses::total        13449                       # number of ReadSharedReq misses
system.l2cache.ReadSharedReq_miss_latency::.cpu.inst   3321570000                       # number of ReadSharedReq miss cycles
system.l2cache.ReadSharedReq_miss_latency::.cpu.data   1191100000                       # number of ReadSharedReq miss cycles
system.l2cache.ReadSharedReq_miss_latency::total   4512670000                       # number of ReadSharedReq miss cycles
system.l2cache.ReadSharedReq_accesses::.cpu.inst       103951                       # number of ReadSharedReq accesses(hits+misses)
system.l2cache.ReadSharedReq_accesses::.cpu.data        48102                       # number of ReadSharedReq accesses(hits+misses)
system.l2cache.ReadSharedReq_accesses::total       152053                       # number of ReadSharedReq accesses(hits+misses)
system.l2cache.ReadSharedReq_miss_rate::.cpu.inst     0.089908                       # miss rate for ReadSharedReq accesses
system.l2cache.ReadSharedReq_miss_rate::.cpu.data     0.085298                       # miss rate for ReadSharedReq accesses
system.l2cache.ReadSharedReq_miss_rate::total     0.088449                       # miss rate for ReadSharedReq accesses
system.l2cache.ReadSharedReq_avg_miss_latency::.cpu.inst 355400.171196                       # average ReadSharedReq miss latency
system.l2cache.ReadSharedReq_avg_miss_latency::.cpu.data 290299.780648                       # average ReadSharedReq miss latency
system.l2cache.ReadSharedReq_avg_miss_latency::total 335539.445312                       # average ReadSharedReq miss latency
system.l2cache.ReadSharedReq_mshr_misses::.cpu.inst         9346                       # number of ReadSharedReq MSHR misses
system.l2cache.ReadSharedReq_mshr_misses::.cpu.data         4103                       # number of ReadSharedReq MSHR misses
system.l2cache.ReadSharedReq_mshr_misses::total        13449                       # number of ReadSharedReq MSHR misses
system.l2cache.ReadSharedReq_mshr_miss_latency::.cpu.inst   3134650000                       # number of ReadSharedReq MSHR miss cycles
system.l2cache.ReadSharedReq_mshr_miss_latency::.cpu.data   1109040000                       # number of ReadSharedReq MSHR miss cycles
system.l2cache.ReadSharedReq_mshr_miss_latency::total   4243690000                       # number of ReadSharedReq MSHR miss cycles
system.l2cache.ReadSharedReq_mshr_miss_rate::.cpu.inst     0.089908                       # mshr miss rate for ReadSharedReq accesses
system.l2cache.ReadSharedReq_mshr_miss_rate::.cpu.data     0.085298                       # mshr miss rate for ReadSharedReq accesses
system.l2cache.ReadSharedReq_mshr_miss_rate::total     0.088449                       # mshr miss rate for ReadSharedReq accesses
system.l2cache.ReadSharedReq_avg_mshr_miss_latency::.cpu.inst 335400.171196                       # average ReadSharedReq mshr miss latency
system.l2cache.ReadSharedReq_avg_mshr_miss_latency::.cpu.data 270299.780648                       # average ReadSharedReq mshr miss latency
system.l2cache.ReadSharedReq_avg_mshr_miss_latency::total 315539.445312                       # average ReadSharedReq mshr miss latency
system.l2cache.power_state.pwrStateResidencyTicks::UNDEFINED  46010540000                       # Cumulative time (in ticks) in various power states
system.l2cache.tags.tagsinuse             3388.605092                       # Cycle average of tags in use
system.l2cache.tags.total_refs                 325856                       # Total number of references to valid blocks.
system.l2cache.tags.sampled_refs                24772                       # Sample count of references to valid blocks.
system.l2cache.tags.avg_refs                13.154206                       # Average number of references to valid blocks.
system.l2cache.tags.warmup_cycle               708000                       # Cycle when the warmup percentage was hit.
system.l2cache.tags.occ_blocks::.writebacks   154.939130                       # Average occupied blocks per requestor
system.l2cache.tags.occ_blocks::.cpu.inst   798.560768                       # Average occupied blocks per requestor
[...]
system.DynamicCache.demand_avg_miss_latency::.cpu.inst 582087.893864                       # average overall miss latency
system.DynamicCache.demand_avg_miss_latency::.cpu.data 581282.712512                       # average overall miss latency
system.DynamicCache.demand_avg_miss_latency::total 581548.826162                       # average overall miss latency
system.DynamicCache.overall_avg_miss_latency::.cpu.inst 582087.893864                       # average overall miss latency
system.DynamicCache.overall_avg_miss_latency::.cpu.data 581282.712512                       # average overall miss latency
system.DynamicCache.overall_avg_miss_latency::total 581548.826162                       # average overall miss latency
system.DynamicCache.blocked_cycles::no_mshrs            0                       # number of cycles access was blocked
system.DynamicCache.blocked_cycles::no_targets            0                       # number of cycles access was blocked
system.DynamicCache.blocked::no_mshrs               0                       # number of cycles access was blocked
system.DynamicCache.blocked::no_targets             0                       # number of cycles access was blocked
system.DynamicCache.avg_blocked_cycles::no_mshrs          nan                       # average number of cycles each access was blocked
system.DynamicCache.avg_blocked_cycles::no_targets          nan                       # average number of cycles each access was blocked
system.DynamicCache.writebacks::.writebacks           57                       # number of writebacks
system.DynamicCache.writebacks::total              57                       # number of writebacks
system.DynamicCache.demand_mshr_misses::.cpu.inst         3618                       # number of demand (read+write) MSHR misses
system.DynamicCache.demand_mshr_misses::.cpu.data         7329                       # number of demand (read+write) MSHR misses
system.DynamicCache.demand_mshr_misses::total        10947                       # number of demand (read+write) MSHR misses
system.DynamicCache.overall_mshr_misses::.cpu.inst         3618                       # number of overall MSHR misses
system.DynamicCache.overall_mshr_misses::.cpu.data         7329                       # number of overall MSHR misses
system.DynamicCache.overall_mshr_misses::total        10947                       # number of overall MSHR misses
system.DynamicCache.demand_mshr_miss_latency::.cpu.inst   1635654000                       # number of demand (read+write) MSHR miss cycles
system.DynamicCache.demand_mshr_miss_latency::.cpu.data   3307451000                       # number of demand (read+write) MSHR miss cycles
system.DynamicCache.demand_mshr_miss_latency::total   4943105000                       # number of demand (read+write) MSHR miss cycles
system.DynamicCache.overall_mshr_miss_latency::.cpu.inst   1635654000                       # number of overall MSHR miss cycles
system.DynamicCache.overall_mshr_miss_latency::.cpu.data   3307451000                       # number of overall MSHR miss cycles
system.DynamicCache.overall_mshr_miss_latency::total   4943105000                       # number of overall MSHR miss cycles
system.DynamicCache.demand_mshr_miss_rate::.cpu.inst     0.792726                       # mshr miss rate for demand accesses
system.DynamicCache.demand_mshr_miss_rate::.cpu.data     0.968420                       # mshr miss rate for demand accesses
system.DynamicCache.demand_mshr_miss_rate::total     0.902324                       # mshr miss rate for demand accesses
system.DynamicCache.overall_mshr_miss_rate::.cpu.inst     0.792726                       # mshr miss rate for overall accesses
system.DynamicCache.overall_mshr_miss_rate::.cpu.data     0.968420                       # mshr miss rate for overall accesses
system.DynamicCache.overall_mshr_miss_rate::total     0.902324                       # mshr miss rate for overall accesses
system.DynamicCache.demand_avg_mshr_miss_latency::.cpu.inst 452087.893864                       # average overall mshr miss latency
system.DynamicCache.demand_avg_mshr_miss_latency::.cpu.data 451282.712512                       # average overall mshr miss latency
system.DynamicCache.demand_avg_mshr_miss_latency::total 451548.826162                       # average overall mshr miss latency
system.DynamicCache.overall_avg_mshr_miss_latency::.cpu.inst 452087.893864                       # average overall mshr miss latency
system.DynamicCache.overall_avg_mshr_miss_latency::.cpu.data 451282.712512                       # average overall mshr miss latency
system.DynamicCache.overall_avg_mshr_miss_latency::total 451548.826162                       # average overall mshr miss latency
system.DynamicCache.replacements                 4700                       # number of replacements
system.DynamicCache.WritebackDirty_hits::.writebacks          381                       # number of WritebackDirty hits
system.DynamicCache.WritebackDirty_hits::total          381                       # number of WritebackDirty hits
system.DynamicCache.WritebackDirty_accesses::.writebacks          381                       # number of WritebackDirty accesses(hits+misses)
system.DynamicCache.WritebackDirty_accesses::total          381                       # number of WritebackDirty accesses(hits+misses)
system.DynamicCache.CleanEvict_mshr_misses::.writebacks         3137                       # number of CleanEvict MSHR misses
system.DynamicCache.CleanEvict_mshr_misses::total         3137                       # number of CleanEvict MSHR misses
system.DynamicCache.CleanEvict_mshr_miss_rate::.writebacks          inf                       # mshr miss rate for CleanEvict accesses
system.DynamicCache.CleanEvict_mshr_miss_rate::total          inf                       # mshr miss rate for CleanEvict accesses
system.DynamicCache.UpgradeReq_hits::.cpu.data            1                       # number of UpgradeReq hits
system.DynamicCache.UpgradeReq_hits::total            1                       # number of UpgradeReq hits
system.DynamicCache.UpgradeReq_accesses::.cpu.data            1                       # number of UpgradeReq accesses(hits+misses)
system.DynamicCache.UpgradeReq_accesses::total            1                       # number of UpgradeReq accesses(hits+misses)
system.DynamicCache.ReadExReq_hits::.cpu.data            2                       # number of ReadExReq hits
system.DynamicCache.ReadExReq_hits::total            2                       # number of ReadExReq hits
system.DynamicCache.ReadExReq_misses::.cpu.data         6119                       # number of ReadExReq misses
system.DynamicCache.ReadExReq_misses::total         6119                       # number of ReadExReq misses
system.DynamicCache.ReadExReq_miss_latency::.cpu.data   3551348000                       # number of ReadExReq miss cycles
system.DynamicCache.ReadExReq_miss_latency::total   3551348000                       # number of ReadExReq miss cycles
system.DynamicCache.ReadExReq_accesses::.cpu.data         6121                       # number of ReadExReq accesses(hits+misses)
system.DynamicCache.ReadExReq_accesses::total         6121                       # number of ReadExReq accesses(hits+misses)
system.DynamicCache.ReadExReq_miss_rate::.cpu.data     0.999673                       # miss rate for ReadExReq accesses
system.DynamicCache.ReadExReq_miss_rate::total     0.999673                       # miss rate for ReadExReq accesses
system.DynamicCache.ReadExReq_avg_miss_latency::.cpu.data 580380.454323                       # average ReadExReq miss latency
system.DynamicCache.ReadExReq_avg_miss_latency::total 580380.454323                       # average ReadExReq miss latency
system.DynamicCache.ReadExReq_mshr_misses::.cpu.data         6119                       # number of ReadExReq MSHR misses
system.DynamicCache.ReadExReq_mshr_misses::total         6119                       # number of ReadExReq MSHR misses
system.DynamicCache.ReadExReq_mshr_miss_latency::.cpu.data   2755878000                       # number of ReadExReq MSHR miss cycles
system.DynamicCache.ReadExReq_mshr_miss_latency::total   2755878000                       # number of ReadExReq MSHR miss cycles
system.DynamicCache.ReadExReq_mshr_miss_rate::.cpu.data     0.999673                       # mshr miss rate for ReadExReq accesses
system.DynamicCache.ReadExReq_mshr_miss_rate::total     0.999673                       # mshr miss rate for ReadExReq accesses
system.DynamicCache.ReadExReq_avg_mshr_miss_latency::.cpu.data 450380.454323                       # average ReadExReq mshr miss latency
system.DynamicCache.ReadExReq_avg_mshr_miss_latency::total 450380.454323                       # average ReadExReq mshr miss latency
system.DynamicCache.ReadSharedReq_hits::.cpu.inst          946                       # number of ReadSharedReq hits
system.DynamicCache.ReadSharedReq_hits::.cpu.data          237                       # number of ReadSharedReq hits
system.DynamicCache.ReadSharedReq_hits::total         1183                       # number of ReadSharedReq hits
system.DynamicCache.ReadSharedReq_misses::.cpu.inst         3618                       # number of ReadSharedReq misses
system.DynamicCache.ReadSharedReq_misses::.cpu.data         1210                       # number of ReadSharedReq misses
system.DynamicCache.ReadSharedReq_misses::total         4828                       # number of ReadSharedReq misses
system.DynamicCache.ReadSharedReq_miss_latency::.cpu.inst   2105994000                       # number of ReadSharedReq miss cycles
system.DynamicCache.ReadSharedReq_miss_latency::.cpu.data    708873000                       # number of ReadSharedReq miss cycles
system.DynamicCache.ReadSharedReq_miss_latency::total   2814867000                       # number of ReadSharedReq miss cycles
system.DynamicCache.ReadSharedReq_accesses::.cpu.inst         4564                       # number of ReadSharedReq accesses(hits+misses)
system.DynamicCache.ReadSharedReq_accesses::.cpu.data         1447                       # number of ReadSharedReq accesses(hits+misses)
system.DynamicCache.ReadSharedReq_accesses::total         6011                       # number of ReadSharedReq accesses(hits+misses)
system.DynamicCache.ReadSharedReq_miss_rate::.cpu.inst     0.792726                       # miss rate for ReadSharedReq accesses
system.DynamicCache.ReadSharedReq_miss_rate::.cpu.data     0.836213                       # miss rate for ReadSharedReq accesses
system.DynamicCache.ReadSharedReq_miss_rate::total     0.803194                       # miss rate for ReadSharedReq accesses
system.DynamicCache.ReadSharedReq_avg_miss_latency::.cpu.inst 582087.893864                       # average ReadSharedReq miss latency
system.DynamicCache.ReadSharedReq_avg_miss_latency::.cpu.data 585845.454545                       # average ReadSharedReq miss latency
system.DynamicCache.ReadSharedReq_avg_miss_latency::total 583029.618890                       # average ReadSharedReq miss latency
system.DynamicCache.ReadSharedReq_mshr_misses::.cpu.inst         3618                       # number of ReadSharedReq MSHR misses
system.DynamicCache.ReadSharedReq_mshr_misses::.cpu.data         1210                       # number of ReadSharedReq MSHR misses
system.DynamicCache.ReadSharedReq_mshr_misses::total         4828                       # number of ReadSharedReq MSHR misses
system.DynamicCache.ReadSharedReq_mshr_miss_latency::.cpu.inst   1635654000                       # number of ReadSharedReq MSHR miss cycles
system.DynamicCache.ReadSharedReq_mshr_miss_latency::.cpu.data    551573000                       # number of ReadSharedReq MSHR miss cycles
system.DynamicCache.ReadSharedReq_mshr_miss_latency::total   2187227000                       # number of ReadSharedReq MSHR miss cycles
system.DynamicCache.ReadSharedReq_mshr_miss_rate::.cpu.inst     0.792726                       # mshr miss rate for ReadSharedReq accesses
system.DynamicCache.ReadSharedReq_mshr_miss_rate::.cpu.data     0.836213                       # mshr miss rate for ReadSharedReq accesses
system.DynamicCache.ReadSharedReq_mshr_miss_rate::total     0.803194                       # mshr miss rate for ReadSharedReq accesses
system.DynamicCache.ReadSharedReq_avg_mshr_miss_latency::.cpu.inst 452087.893864                       # average ReadSharedReq mshr miss latency
system.DynamicCache.ReadSharedReq_avg_mshr_miss_latency::.cpu.data 455845.454545                       # average ReadSharedReq mshr miss latency
system.DynamicCache.ReadSharedReq_avg_mshr_miss_latency::total 453029.618890                       # average ReadSharedReq mshr miss latency
system.DynamicCache.power_state.pwrStateResidencyTicks::UNDEFINED  46010540000                       # Cumulative time (in ticks) in various power states
system.DynamicCache.tags.tagsinuse        4505.546549                       # Cycle average of tags in use
system.DynamicCache.tags.total_refs             14106                       # Total number of references to valid blocks.
system.DynamicCache.tags.sampled_refs           11328                       # Sample count of references to valid blocks.
system.DynamicCache.tags.avg_refs            1.245233                       # Average number of references to valid blocks.
system.DynamicCache.tags.warmup_cycle          527000                       # Cycle when the warmup percentage was hit.
system.DynamicCache.tags.occ_blocks::.writebacks    52.037337                       # Average occupied blocks per requestor
system.DynamicCache.tags.occ_blocks::.cpu.inst  1201.773686                       # Average occupied blocks per requestor
system.DynamicCache.tags.occ_blocks::.cpu.data  3251.735526                       # Average occupied blocks per requestor
system.DynamicCache.tags.occ_percent::.writebacks     0.006352                       # Average percentage of cache occupancy
system.DynamicCache.tags.occ_percent::.cpu.inst     0.146701                       # Average percentage of cache occupancy
system.DynamicCache.tags.occ_percent::.cpu.data     0.396940                       # Average percentage of cache occupancy
system.DynamicCache.tags.occ_percent::total     0.549993                       # Average percentage of cache occupancy
system.DynamicCache.tags.occ_task_id_blocks::1024         6628                       # Occupied blocks per task id
system.DynamicCache.tags.age_task_id_blocks_1024::1           17                       # Occupied blocks per task id
system.DynamicCache.tags.age_task_id_blocks_1024::2          134                       # Occupied blocks per task id
system.DynamicCache.tags.age_task_id_blocks_1024::3         1304                       # Occupied blocks per task id
system.DynamicCache.tags.age_task_id_blocks_1024::4         5173                       # Occupied blocks per task id
system.DynamicCache.tags.occ_task_id_percent::1024     0.809082                       # Percentage of cache occupancy per task id
system.DynamicCache.tags.tag_accesses           28571                       # Number of tag accesses
system.DynamicCache.tags.data_accesses          28571                       # Number of data accesses
system.DynamicCache.tags.power_state.pwrStateResidencyTicks::UNDEFINED  46010540000                       # Cumulative time (in ticks) in various power states
system.l2bar.trans_dist::ReadResp              152053                       # Transaction distribution
system.l2bar.trans_dist::WritebackDirty         55914                       # Transaction distribution
system.l2bar.trans_dist::CleanEvict            142428                       # Transaction distribution
system.l2bar.trans_dist::UpgradeReq               324                       # Transaction distribution
system.l2bar.trans_dist::UpgradeResp              324                       # Transaction distribution
system.l2bar.trans_dist::ReadExReq              14826                       # Transaction distribution
system.l2bar.trans_dist::ReadExResp             14826                       # Transaction distribution
system.l2bar.trans_dist::ReadSharedReq         152053                       # Transaction distribution
system.l2bar.pkt_count_system.dcache.mem_side::system.l2cache.cpu_side       188920                       # Packet count per connected master and slave (bytes)
system.l2bar.pkt_count_system.icache.mem_side::system.l2cache.cpu_side       311341                       # Packet count per connected master and slave (bytes)
system.l2bar.pkt_count::total                  500261                       # Packet count per connected master and slave (bytes)
system.l2bar.pkt_size_system.dcache.mem_side::system.l2cache.cpu_side      7272768                       # Cumulative packet size per connected master and slave (bytes)
system.l2bar.pkt_size_system.icache.mem_side::system.l2cache.cpu_side      6652864                       # Cumulative packet size per connected master and slave (bytes)
system.l2bar.pkt_size::total                 13925632                       # Cumulative packet size per connected master and slave (bytes)
system.l2bar.snoops                             32487                       # Total snoops (count)
system.l2bar.snoopTraffic                      333120                       # Total snoop traffic (bytes)
system.l2bar.snoop_fanout::samples             199690                       # Request fanout histogram
system.l2bar.snoop_fanout::mean              0.088222                       # Request fanout histogram
system.l2bar.snoop_fanout::stdev             0.283618                       # Request fanout histogram
system.l2bar.snoop_fanout::underflows               0      0.00%      0.00% # Request fanout histogram
system.l2bar.snoop_fanout::0                   182073     91.18%     91.18% # Request fanout histogram
system.l2bar.snoop_fanout::1                    17617      8.82%    100.00% # Request fanout histogram
system.l2bar.snoop_fanout::2                        0      0.00%    100.00% # Request fanout histogram
system.l2bar.snoop_fanout::overflows                0      0.00%    100.00% # Request fanout histogram
system.l2bar.snoop_fanout::min_value                0                       # Request fanout histogram
system.l2bar.snoop_fanout::max_value                1                       # Request fanout histogram
system.l2bar.snoop_fanout::total               199690                       # Request fanout histogram
system.l2bar.reqLayer0.occupancy            434476000                       # Layer occupancy (ticks)
system.l2bar.reqLayer0.utilization                0.9                       # Layer utilization (%)
system.l2bar.respLayer1.occupancy           311853000                       # Layer occupancy (ticks)
system.l2bar.respLayer1.utilization               0.7                       # Layer utilization (%)
system.l2bar.respLayer0.occupancy           189108000                       # Layer occupancy (ticks)
system.l2bar.respLayer0.utilization               0.4                       # Layer utilization (%)
system.l2bar.power_state.pwrStateResidencyTicks::UNDEFINED  46010540000                       # Cumulative time (in ticks) in various power states
system.cpu.dtb.walker.power_state.pwrStateResidencyTicks::UNDEFINED  46010540000                       # Cumulative time (in ticks) in various power states
system.cpu.interrupts.clk_domain.clock          16000                       # Clock period in ticks
system.cpu.itb.walker.power_state.pwrStateResidencyTicks::UNDEFINED  46010540000                       # Cumulative time (in ticks) in various power states
system.cpu.power_state.numTransitions               1                       # Number of power state transitions
system.cpu.power_state.pwrStateResidencyTicks::ON  46010540000                       # Cumulative time (in ticks) in various power states

---------- End Simulation Statistics   ----------
