
---------- Begin Simulation Statistics ----------
final_tick                               417360848000                       # Number of ticks from beginning of simulation (restored from checkpoints and never reset)
host_inst_rate                                 218086                       # Simulator instruction rate (inst/s)
host_mem_usage                                 814568                       # Number of bytes of host memory used
host_op_rate                                   434671                       # Simulator op (including micro ops) rate (op/s)
host_seconds                                    22.93                       # Real time elapsed on the host
host_tick_rate                            18204035303                       # Simulator tick rate (ticks/s)
sim_freq                                 1000000000000                       # Frequency of simulated ticks
sim_insts                                     5000001                       # Number of instructions simulated
sim_ops                                       9965606                       # Number of ops (including micro ops) simulated
sim_seconds                                  0.417361                       # Number of seconds simulated
sim_ticks                                417360848000                       # Number of ticks simulated
system.cachebus.snoop_filter.hit_multi_requests            0                       # Number of requests hitting in the snoop filter with multiple (>1) holders of the requested data.
system.cachebus.snoop_filter.hit_multi_snoops            0                       # Number of snoops hitting in the snoop filter with multiple (>1) holders of the requested data.
system.cachebus.snoop_filter.hit_single_requests            0                       # Number of requests hitting in the snoop filter with a single holder of the requested data.
system.cachebus.snoop_filter.hit_single_snoops            0                       # Number of snoops hitting in the snoop filter with a single holder of the requested data.
system.cachebus.snoop_filter.tot_requests            0                       # Total number of requests made to the snoop filter.
system.cachebus.snoop_filter.tot_snoops             0                       # Total number of snoops made to the snoop filter.
system.cpu.Branches                           1055107                       # Number of branches fetched
system.cpu.committedInsts                     5000001                       # Number of instructions committed
system.cpu.committedOps                       9965606                       # Number of ops (including micro ops) committed
system.cpu.dtb.rdAccesses                     1148433                       # TLB accesses on read requests
system.cpu.dtb.rdMisses                          2240                       # TLB misses on read requests
system.cpu.dtb.wrAccesses                      865763                       # TLB accesses on write requests
system.cpu.dtb.wrMisses                           934                       # TLB misses on write requests
system.cpu.idle_fraction                            0                       # Percentage of idle cycles
system.cpu.itb.rdAccesses                           0                       # TLB accesses on read requests
system.cpu.itb.rdMisses                             0                       # TLB misses on read requests
system.cpu.itb.wrAccesses                     6485910                       # TLB accesses on write requests
system.cpu.itb.wrMisses                           364                       # TLB misses on write requests
system.cpu.not_idle_fraction                        1                       # Percentage of non-idle cycles
system.cpu.numCycles                        417360848                       # number of cpu cycles simulated
system.cpu.numWorkItemsCompleted                    0                       # number of work items this cpu completed
system.cpu.numWorkItemsStarted                      0                       # number of work items this cpu started
system.cpu.num_busy_cycles                  417360848                       # Number of busy cycles
system.cpu.num_cc_register_reads              5795737                       # number of times the CC registers were read
system.cpu.num_cc_register_writes             3170344                       # number of times the CC registers were written
system.cpu.num_conditional_control_insts       757531                       # number of instructions that are conditional controls
system.cpu.num_fp_alu_accesses                 400796                       # Number of float alu accesses
system.cpu.num_fp_insts                        400796                       # number of float instructions
system.cpu.num_fp_register_reads               612636                       # number of times the floating registers were read
system.cpu.num_fp_register_writes              264846                       # number of times the floating registers were written
system.cpu.num_func_calls                      209194                       # number of times a function call or return occured
system.cpu.num_idle_cycles                          0                       # Number of idle cycles
system.cpu.num_int_alu_accesses               9678796                       # Number of integer alu accesses
system.cpu.num_int_insts                      9678796                       # number of integer instructions
system.cpu.num_int_register_reads            19082932                       # number of times the integer registers were read
system.cpu.num_int_register_writes            7846681                       # number of times the integer registers were written
system.cpu.num_load_insts                     1146735                       # Number of load instructions
system.cpu.num_mem_refs                       2012399                       # number of memory refs
system.cpu.num_store_insts                     865664                       # Number of store instructions
system.cpu.num_vec_alu_accesses                     0                       # Number of vector alu accesses
system.cpu.num_vec_insts                            0                       # number of vector instructions
system.cpu.num_vec_register_reads                   0                       # number of times the vector registers were read
system.cpu.num_vec_register_writes                  0                       # number of times the vector registers were written
system.cpu.op_class::No_OpClass                 70202      0.70%      0.70% # Class of executed instruction
system.cpu.op_class::IntAlu                   7565936     75.92%     76.62% # Class of executed instruction
system.cpu.op_class::IntMult                    34403      0.35%     76.97% # Class of executed instruction
system.cpu.op_class::IntDiv                     34245      0.34%     77.31% # Class of executed instruction
system.cpu.op_class::FloatAdd                    4101      0.04%     77.35% # Class of executed instruction
system.cpu.op_class::FloatCmp                       0      0.00%     77.35% # Class of executed instruction
system.cpu.op_class::FloatCvt                       0      0.00%     77.35% # Class of executed instruction
system.cpu.op_class::FloatMult                      0      0.00%     77.35% # Class of executed instruction
system.cpu.op_class::FloatMultAcc                   0      0.00%     77.35% # Class of executed instruction
system.cpu.op_class::FloatDiv                       0      0.00%     77.35% # Class of executed instruction
system.cpu.op_class::FloatMisc                      0      0.00%     77.35% # Class of executed instruction
system.cpu.op_class::FloatSqrt                      0      0.00%     77.35% # Class of executed instruction
system.cpu.op_class::SimdAdd                    10940      0.11%     77.46% # Class of executed instruction
system.cpu.op_class::SimdAddAcc                     0      0.00%     77.46% # Class of executed instruction
system.cpu.op_class::SimdAlu                   110866      1.11%     78.57% # Class of executed instruction
system.cpu.op_class::SimdCmp                      164      0.00%     78.58% # Class of executed instruction
system.cpu.op_class::SimdCvt                    52686      0.53%     79.10% # Class of executed instruction
system.cpu.op_class::SimdMisc                   67700      0.68%     79.78% # Class of executed instruction
system.cpu.op_class::SimdMult                       0      0.00%     79.78% # Class of executed instruction
system.cpu.op_class::SimdMultAcc                    0      0.00%     79.78% # Class of executed instruction
system.cpu.op_class::SimdShift                   2248      0.02%     79.81% # Class of executed instruction
system.cpu.op_class::SimdShiftAcc                   0      0.00%     79.81% # Class of executed instruction
system.cpu.op_class::SimdDiv                        0      0.00%     79.81% # Class of executed instruction
system.cpu.op_class::SimdSqrt                       0      0.00%     79.81% # Class of executed instruction
system.cpu.op_class::SimdFloatAdd                   4      0.00%     79.81% # Class of executed instruction
system.cpu.op_class::SimdFloatAlu                   0      0.00%     79.81% # Class of executed instruction
system.cpu.op_class::SimdFloatCmp                   2      0.00%     79.81% # Class of executed instruction
system.cpu.op_class::SimdFloatCvt                  21      0.00%     79.81% # Class of executed instruction
system.cpu.op_class::SimdFloatDiv                   1      0.00%     79.81% # Class of executed instruction
system.cpu.op_class::SimdFloatMisc                  0      0.00%     79.81% # Class of executed instruction
system.cpu.op_class::SimdFloatMult                 12      0.00%     79.81% # Class of executed instruction
system.cpu.op_class::SimdFloatMultAcc               0      0.00%     79.81% # Class of executed instruction
system.cpu.op_class::SimdFloatSqrt                  0      0.00%     79.81% # Class of executed instruction
system.cpu.op_class::SimdReduceAdd                  0      0.00%     79.81% # Class of executed instruction
system.cpu.op_class::SimdReduceAlu                  0      0.00%     79.81% # Class of executed instruction
system.cpu.op_class::SimdReduceCmp                  0      0.00%     79.81% # Class of executed instruction
system.cpu.op_class::SimdFloatReduceAdd             0      0.00%     79.81% # Class of executed instruction
system.cpu.op_class::SimdFloatReduceCmp             0      0.00%     79.81% # Class of executed instruction
system.cpu.op_class::SimdAes                        0      0.00%     79.81% # Class of executed instruction
system.cpu.op_class::SimdAesMix                     0      0.00%     79.81% # Class of executed instruction
system.cpu.op_class::SimdSha1Hash                   0      0.00%     79.81% # Class of executed instruction
system.cpu.op_class::SimdSha1Hash2                  0      0.00%     79.81% # Class of executed instruction
system.cpu.op_class::SimdSha256Hash                 0      0.00%     79.81% # Class of executed instruction
system.cpu.op_class::SimdSha256Hash2                0      0.00%     79.81% # Class of executed instruction
system.cpu.op_class::SimdShaSigma2                  0      0.00%     79.81% # Class of executed instruction
system.cpu.op_class::SimdShaSigma3                  0      0.00%     79.81% # Class of executed instruction
system.cpu.op_class::SimdPredAlu                    0      0.00%     79.81% # Class of executed instruction
system.cpu.op_class::MemRead                  1094322     10.98%     90.79% # Class of executed instruction
system.cpu.op_class::MemWrite                  770881      7.74%     98.52% # Class of executed instruction
system.cpu.op_class::FloatMemRead               52413      0.53%     99.05% # Class of executed instruction
system.cpu.op_class::FloatMemWrite              94783      0.95%    100.00% # Class of executed instruction
system.cpu.op_class::IprAccess                      0      0.00%    100.00% # Class of executed instruction
system.cpu.op_class::InstPrefetch                   0      0.00%    100.00% # Class of executed instruction
system.cpu.op_class::total                    9965930                       # Class of executed instruction
system.cpu.workload.numSyscalls                    39                       # Number of system calls
system.membus.snoop_filter.hit_multi_requests            0                       # Number of requests hitting in the snoop filter with multiple (>1) holders of the requested data.
system.membus.snoop_filter.hit_multi_snoops            0                       # Number of snoops hitting in the snoop filter with multiple (>1) holders of the requested data.
system.membus.snoop_filter.hit_single_requests            0                       # Number of requests hitting in the snoop filter with a single holder of the requested data.
system.membus.snoop_filter.hit_single_snoops            0                       # Number of snoops hitting in the snoop filter with a single holder of the requested data.
system.membus.snoop_filter.tot_requests             0                       # Total number of requests made to the snoop filter.
system.membus.snoop_filter.tot_snoops               0                       # Total number of snoops made to the snoop filter.
system.membus.trans_dist::ReadReq             7631666                       # Transaction distribution
system.membus.trans_dist::ReadResp            7631665                       # Transaction distribution
system.membus.trans_dist::WriteReq             865477                       # Transaction distribution
system.membus.trans_dist::WriteResp            865477                       # Transaction distribution
system.membus.trans_dist::SoftPFReq              2639                       # Transaction distribution
system.membus.trans_dist::SoftPFResp             2639                       # Transaction distribution
system.membus.pkt_count_system.cpu.icache_port::system.mem_ctrl.port     12971819                       # Packet count per connected master and slave (bytes)
system.membus.pkt_count_system.cpu.icache_port::total     12971819                       # Packet count per connected master and slave (bytes)
system.membus.pkt_count_system.memobj.mem_side::system.mem_ctrl.port      4027744                       # Packet count per connected master and slave (bytes)
system.membus.pkt_count_system.memobj.mem_side::total      4027744                       # Packet count per connected master and slave (bytes)
system.membus.pkt_count::total               16999563                       # Packet count per connected master and slave (bytes)
system.membus.pkt_size_system.cpu.icache_port::system.mem_ctrl.port     51887272                       # Cumulative packet size per connected master and slave (bytes)
system.membus.pkt_size_system.cpu.icache_port::total     51887272                       # Cumulative packet size per connected master and slave (bytes)
system.membus.pkt_size_system.memobj.mem_side::system.mem_ctrl.port     13414075                       # Cumulative packet size per connected master and slave (bytes)
system.membus.pkt_size_system.memobj.mem_side::total     13414075                       # Cumulative packet size per connected master and slave (bytes)
system.membus.pkt_size::total                65301347                       # Cumulative packet size per connected master and slave (bytes)
system.membus.snoops                                0                       # Total snoops (count)
system.membus.snoopTraffic                          0                       # Total snoop traffic (bytes)
system.membus.snoop_fanout::samples           8499782                       # Request fanout histogram
system.membus.snoop_fanout::mean                    0                       # Request fanout histogram
system.membus.snoop_fanout::stdev                   0                       # Request fanout histogram
system.membus.snoop_fanout::underflows              0      0.00%      0.00% # Request fanout histogram
system.membus.snoop_fanout::0                 8499782    100.00%    100.00% # Request fanout histogram
system.membus.snoop_fanout::1                       0      0.00%    100.00% # Request fanout histogram
system.membus.snoop_fanout::overflows               0      0.00%    100.00% # Request fanout histogram
system.membus.snoop_fanout::min_value               0                       # Request fanout histogram
system.membus.snoop_fanout::max_value               0                       # Request fanout histogram
system.membus.snoop_fanout::total             8499782                       # Request fanout histogram
system.membus.reqLayer2.occupancy          9365259000                       # Layer occupancy (ticks)
system.membus.reqLayer2.utilization               2.2                       # Layer utilization (%)
system.membus.respLayer1.occupancy         3536187500                       # Layer occupancy (ticks)
system.membus.respLayer1.utilization              0.8                       # Layer utilization (%)
system.membus.respLayer0.occupancy        14741865000                       # Layer occupancy (ticks)
system.membus.respLayer0.utilization              3.5                       # Layer utilization (%)
system.membus.power_state.pwrStateResidencyTicks::UNDEFINED 417360848000                       # Cumulative time (in ticks) in various power states
system.mem_ctrl.bytes_read::.cpu.inst        51887272                       # Number of bytes read from this memory
system.mem_ctrl.bytes_read::.cpu.data         7441525                       # Number of bytes read from this memory
system.mem_ctrl.bytes_read::total            59328797                       # Number of bytes read from this memory
system.mem_ctrl.bytes_inst_read::.cpu.inst     51887272                       # Number of instructions bytes read from this memory
system.mem_ctrl.bytes_inst_read::total       51887272                       # Number of instructions bytes read from this memory
system.mem_ctrl.bytes_written::.cpu.data      5972550                       # Number of bytes written to this memory
system.mem_ctrl.bytes_written::total          5972550                       # Number of bytes written to this memory
system.mem_ctrl.num_reads::.cpu.inst          6485909                       # Number of read requests responded to by this memory
system.mem_ctrl.num_reads::.cpu.data          1148395                       # Number of read requests responded to by this memory
system.mem_ctrl.num_reads::total              7634304                       # Number of read requests responded to by this memory
system.mem_ctrl.num_writes::.cpu.data          865477                       # Number of write requests responded to by this memory
system.mem_ctrl.num_writes::total              865477                       # Number of write requests responded to by this memory
system.mem_ctrl.bw_read::.cpu.inst          124322327                       # Total read bandwidth from this memory (bytes/s)
system.mem_ctrl.bw_read::.cpu.data           17829955                       # Total read bandwidth from this memory (bytes/s)
system.mem_ctrl.bw_read::total              142152282                       # Total read bandwidth from this memory (bytes/s)
system.mem_ctrl.bw_inst_read::.cpu.inst     124322327                       # Instruction read bandwidth from this memory (bytes/s)
system.mem_ctrl.bw_inst_read::total         124322327                       # Instruction read bandwidth from this memory (bytes/s)
system.mem_ctrl.bw_write::.cpu.data          14310279                       # Write bandwidth from this memory (bytes/s)
system.mem_ctrl.bw_write::total              14310279                       # Write bandwidth from this memory (bytes/s)
system.mem_ctrl.bw_total::.cpu.inst         124322327                       # Total bandwidth to/from this memory (bytes/s)
system.mem_ctrl.bw_total::.cpu.data          32140233                       # Total bandwidth to/from this memory (bytes/s)
system.mem_ctrl.bw_total::total             156462561                       # Total bandwidth to/from this memory (bytes/s)
system.mem_ctrl.avgPriority_.cpu.inst::samples   6485910.00                       # Average QoS priority value for accepted requests
system.mem_ctrl.avgPriority_.cpu.data::samples   1083892.00                       # Average QoS priority value for accepted requests
system.mem_ctrl.priorityMinLatency       0.000000018750                       # per QoS priority minimum request to response latency (s)
system.mem_ctrl.priorityMaxLatency       0.026417694750                       # per QoS priority maximum request to response latency (s)
system.mem_ctrl.numReadWriteTurnArounds          4092                       # Number of turnarounds from READ to WRITE
system.mem_ctrl.numWriteReadTurnArounds          4092                       # Number of turnarounds from WRITE to READ
system.mem_ctrl.numStayReadState             15975751                       # Number of times bus staying in READ state
system.mem_ctrl.numStayWriteState               61512                       # Number of times bus staying in WRITE state
system.mem_ctrl.readReqs                      7634305                       # Number of read requests accepted
system.mem_ctrl.writeReqs                      865477                       # Number of write requests accepted
system.mem_ctrl.readBursts                    7634305                       # Number of DRAM read bursts, including those serviced by the write queue
system.mem_ctrl.writeBursts                    865477                       # Number of DRAM write bursts, including those merged in the write queue
system.mem_ctrl.servicedByWrQ                  130064                       # Number of DRAM read bursts serviced by the write queue
system.mem_ctrl.mergedWrBursts                 799916                       # Number of DRAM write bursts merged with an existing one
system.mem_ctrl.neitherReadNorWriteReqs             0                       # Number of requests that are neither read nor write
system.mem_ctrl.perBankRdBursts::0             567267                       # Per bank write bursts
system.mem_ctrl.perBankRdBursts::1             661800                       # Per bank write bursts
system.mem_ctrl.perBankRdBursts::2             399033                       # Per bank write bursts
system.mem_ctrl.perBankRdBursts::3             589766                       # Per bank write bursts
system.mem_ctrl.perBankRdBursts::4            1008562                       # Per bank write bursts
system.mem_ctrl.perBankRdBursts::5             158166                       # Per bank write bursts
system.mem_ctrl.perBankRdBursts::6              46809                       # Per bank write bursts
system.mem_ctrl.perBankRdBursts::7             633038                       # Per bank write bursts
system.mem_ctrl.perBankRdBursts::8              72142                       # Per bank write bursts
system.mem_ctrl.perBankRdBursts::9             256482                       # Per bank write bursts
system.mem_ctrl.perBankRdBursts::10            126166                       # Per bank write bursts
system.mem_ctrl.perBankRdBursts::11            365073                       # Per bank write bursts
system.mem_ctrl.perBankRdBursts::12            432073                       # Per bank write bursts
system.mem_ctrl.perBankRdBursts::13            458361                       # Per bank write bursts
system.mem_ctrl.perBankRdBursts::14           1118612                       # Per bank write bursts
system.mem_ctrl.perBankRdBursts::15            610891                       # Per bank write bursts
system.mem_ctrl.perBankWrBursts::0               1920                       # Per bank write bursts
system.mem_ctrl.perBankWrBursts::1               1989                       # Per bank write bursts
system.mem_ctrl.perBankWrBursts::2               1992                       # Per bank write bursts
system.mem_ctrl.perBankWrBursts::3               3613                       # Per bank write bursts
system.mem_ctrl.perBankWrBursts::4               6298                       # Per bank write bursts
system.mem_ctrl.perBankWrBursts::5               4058                       # Per bank write bursts
system.mem_ctrl.perBankWrBursts::6               2726                       # Per bank write bursts
system.mem_ctrl.perBankWrBursts::7              19151                       # Per bank write bursts
system.mem_ctrl.perBankWrBursts::8               2964                       # Per bank write bursts
system.mem_ctrl.perBankWrBursts::9               2481                       # Per bank write bursts
system.mem_ctrl.perBankWrBursts::10              4290                       # Per bank write bursts
system.mem_ctrl.perBankWrBursts::11              2815                       # Per bank write bursts
system.mem_ctrl.perBankWrBursts::12              3793                       # Per bank write bursts
system.mem_ctrl.perBankWrBursts::13              2558                       # Per bank write bursts
system.mem_ctrl.perBankWrBursts::14              2699                       # Per bank write bursts
system.mem_ctrl.perBankWrBursts::15              2193                       # Per bank write bursts
system.mem_ctrl.avgRdQLen                        1.00                       # Average read queue length when enqueuing
system.mem_ctrl.avgWrQLen                       26.42                       # Average write queue length when enqueuing
system.mem_ctrl.totQLat                   28713066500                       # Total ticks spent queuing
system.mem_ctrl.totBusLat                 37521205000                       # Total ticks spent in databus transfers
system.mem_ctrl.totMemAccLat             169417585250                       # Total ticks spent from burst creation until serviced by the DRAM
system.mem_ctrl.avgQLat                       3826.25                       # Average queueing delay per DRAM burst
system.mem_ctrl.avgBusLat                     5000.00                       # Average bus latency per DRAM burst
system.mem_ctrl.avgMemAccLat                 22576.25                       # Average memory access latency per DRAM burst
system.mem_ctrl.numRdRetry                          0                       # Number of times read queue was full causing retry
system.mem_ctrl.numWrRetry                          0                       # Number of times write queue was full causing retry
system.mem_ctrl.readRowHits                   6618743                       # Number of row buffer hits during reads
system.mem_ctrl.writeRowHits                    47427                       # Number of row buffer hits during writes
system.mem_ctrl.readRowHitRate                  88.20                       # Row buffer hit rate for reads
system.mem_ctrl.writeRowHitRate                 72.34                       # Row buffer hit rate for writes
system.mem_ctrl.readPktSize::0                 135631                       # Read request sizes (log2)
system.mem_ctrl.readPktSize::1                  53528                       # Read request sizes (log2)
system.mem_ctrl.readPktSize::2                 117963                       # Read request sizes (log2)
system.mem_ctrl.readPktSize::3                7327183                       # Read request sizes (log2)
system.mem_ctrl.readPktSize::4                      0                       # Read request sizes (log2)
system.mem_ctrl.readPktSize::5                      0                       # Read request sizes (log2)
system.mem_ctrl.readPktSize::6                      0                       # Read request sizes (log2)
system.mem_ctrl.writePktSize::0                 28036                       # Write request sizes (log2)
system.mem_ctrl.writePktSize::1                 27207                       # Write request sizes (log2)
system.mem_ctrl.writePktSize::2                147897                       # Write request sizes (log2)
system.mem_ctrl.writePktSize::3                662337                       # Write request sizes (log2)
system.mem_ctrl.writePktSize::4                     0                       # Write request sizes (log2)
system.mem_ctrl.writePktSize::5                     0                       # Write request sizes (log2)
system.mem_ctrl.writePktSize::6                     0                       # Write request sizes (log2)
system.mem_ctrl.rdQLenPdf::0                  7502544                       # What read queue length does an incoming req see
system.mem_ctrl.rdQLenPdf::1                     1697                       # What read queue length does an incoming req see
system.mem_ctrl.rdQLenPdf::2                        0                       # What read queue length does an incoming req see
system.mem_ctrl.rdQLenPdf::3                        0                       # What read queue length does an incoming req see
system.mem_ctrl.rdQLenPdf::4                        0                       # What read queue length does an incoming req see
system.mem_ctrl.rdQLenPdf::5                        0                       # What read queue length does an incoming req see
system.mem_ctrl.rdQLenPdf::6                        0                       # What read queue length does an incoming req see
system.mem_ctrl.rdQLenPdf::7                        0                       # What read queue length does an incoming req see
system.mem_ctrl.rdQLenPdf::8                        0                       # What read queue length does an incoming req see
system.mem_ctrl.rdQLenPdf::9                        0                       # What read queue length does an incoming req see
system.mem_ctrl.rdQLenPdf::10                       0                       # What read queue length does an incoming req see
system.mem_ctrl.rdQLenPdf::11                       0                       # What read queue length does an incoming req see
system.mem_ctrl.rdQLenPdf::12                       0                       # What read queue length does an incoming req see
system.mem_ctrl.rdQLenPdf::13                       0                       # What read queue length does an incoming req see
system.mem_ctrl.rdQLenPdf::14                       0                       # What read queue length does an incoming req see
system.mem_ctrl.rdQLenPdf::15                       0                       # What read queue length does an incoming req see
system.mem_ctrl.rdQLenPdf::16                       0                       # What read queue length does an incoming req see
system.mem_ctrl.rdQLenPdf::17                       0                       # What read queue length does an incoming req see
system.mem_ctrl.rdQLenPdf::18                       0                       # What read queue length does an incoming req see
system.mem_ctrl.rdQLenPdf::19                       0                       # What read queue length does an incoming req see
system.mem_ctrl.rdQLenPdf::20                       0                       # What read queue length does an incoming req see
system.mem_ctrl.rdQLenPdf::21                       0                       # What read queue length does an incoming req see
system.mem_ctrl.rdQLenPdf::22                       0                       # What read queue length does an incoming req see
system.mem_ctrl.rdQLenPdf::23                       0                       # What read queue length does an incoming req see
system.mem_ctrl.rdQLenPdf::24                       0                       # What read queue length does an incoming req see
system.mem_ctrl.rdQLenPdf::25                       0                       # What read queue length does an incoming req see
system.mem_ctrl.rdQLenPdf::26                       0                       # What read queue length does an incoming req see
system.mem_ctrl.rdQLenPdf::27                       0                       # What read queue length does an incoming req see
system.mem_ctrl.rdQLenPdf::28                       0                       # What read queue length does an incoming req see
system.mem_ctrl.rdQLenPdf::29                       0                       # What read queue length does an incoming req see
system.mem_ctrl.rdQLenPdf::30                       0                       # What read queue length does an incoming req see
system.mem_ctrl.rdQLenPdf::31                       0                       # What read queue length does an incoming req see
system.mem_ctrl.wrQLenPdf::0                        1                       # What write queue length does an incoming req see
system.mem_ctrl.wrQLenPdf::1                        1                       # What write queue length does an incoming req see
system.mem_ctrl.wrQLenPdf::2                        1                       # What write queue length does an incoming req see
system.mem_ctrl.wrQLenPdf::3                        1                       # What write queue length does an incoming req see
system.mem_ctrl.wrQLenPdf::4                        1                       # What write queue length does an incoming req see
system.mem_ctrl.wrQLenPdf::5                        1                       # What write queue length does an incoming req see
system.mem_ctrl.wrQLenPdf::6                        1                       # What write queue length does an incoming req see
system.mem_ctrl.wrQLenPdf::7                        1                       # What write queue length does an incoming req see
system.mem_ctrl.wrQLenPdf::8                        1                       # What write queue length does an incoming req see
system.mem_ctrl.wrQLenPdf::9                        1                       # What write queue length does an incoming req see
system.mem_ctrl.wrQLenPdf::10                       1                       # What write queue length does an incoming req see
system.mem_ctrl.wrQLenPdf::11                       1                       # What write queue length does an incoming req see
system.mem_ctrl.wrQLenPdf::12                       1                       # What write queue length does an incoming req see
system.mem_ctrl.wrQLenPdf::13                       1                       # What write queue length does an incoming req see
system.mem_ctrl.wrQLenPdf::14                       1                       # What write queue length does an incoming req see
system.mem_ctrl.wrQLenPdf::15                      30                       # What write queue length does an incoming req see
system.mem_ctrl.wrQLenPdf::16                      34                       # What write queue length does an incoming req see
system.mem_ctrl.wrQLenPdf::17                    4074                       # What write queue length does an incoming req see
system.mem_ctrl.wrQLenPdf::18                    4093                       # What write queue length does an incoming req see
system.mem_ctrl.wrQLenPdf::19                    4095                       # What write queue length does an incoming req see
system.mem_ctrl.wrQLenPdf::20                    4094                       # What write queue length does an incoming req see
system.mem_ctrl.wrQLenPdf::21                    4093                       # What write queue length does an incoming req see
system.mem_ctrl.wrQLenPdf::22                    4092                       # What write queue length does an incoming req see
system.mem_ctrl.wrQLenPdf::23                    4105                       # What write queue length does an incoming req see
system.mem_ctrl.wrQLenPdf::24                    4093                       # What write queue length does an incoming req see
system.mem_ctrl.wrQLenPdf::25                    4092                       # What write queue length does an incoming req see
system.mem_ctrl.wrQLenPdf::26                    4099                       # What write queue length does an incoming req see
system.mem_ctrl.wrQLenPdf::27                    4092                       # What write queue length does an incoming req see
system.mem_ctrl.wrQLenPdf::28                    4092                       # What write queue length does an incoming req see
system.mem_ctrl.wrQLenPdf::29                    4092                       # What write queue length does an incoming req see
system.mem_ctrl.wrQLenPdf::30                    4092                       # What write queue length does an incoming req see
system.mem_ctrl.wrQLenPdf::31                    4092                       # What write queue length does an incoming req see
system.mem_ctrl.wrQLenPdf::32                    4092                       # What write queue length does an incoming req see
system.mem_ctrl.wrQLenPdf::33                       0                       # What write queue length does an incoming req see
system.mem_ctrl.wrQLenPdf::34                       0                       # What write queue length does an incoming req see
system.mem_ctrl.wrQLenPdf::35                       0                       # What write queue length does an incoming req see
system.mem_ctrl.wrQLenPdf::36                       0                       # What write queue length does an incoming req see
system.mem_ctrl.wrQLenPdf::37                       0                       # What write queue length does an incoming req see
system.mem_ctrl.wrQLenPdf::38                       0                       # What write queue length does an incoming req see
system.mem_ctrl.wrQLenPdf::39                       0                       # What write queue length does an incoming req see
system.mem_ctrl.wrQLenPdf::40                       0                       # What write queue length does an incoming req see
system.mem_ctrl.wrQLenPdf::41                       0                       # What write queue length does an incoming req see
system.mem_ctrl.wrQLenPdf::42                       0                       # What write queue length does an incoming req see
system.mem_ctrl.wrQLenPdf::43                       0                       # What write queue length does an incoming req see
system.mem_ctrl.wrQLenPdf::44                       0                       # What write queue length does an incoming req see
system.mem_ctrl.wrQLenPdf::45                       0                       # What write queue length does an incoming req see
system.mem_ctrl.wrQLenPdf::46                       0                       # What write queue length does an incoming req see
system.mem_ctrl.wrQLenPdf::47                       0                       # What write queue length does an incoming req see
system.mem_ctrl.wrQLenPdf::48                       0                       # What write queue length does an incoming req see
system.mem_ctrl.wrQLenPdf::49                       0                       # What write queue length does an incoming req see
system.mem_ctrl.wrQLenPdf::50                       0                       # What write queue length does an incoming req see
system.mem_ctrl.wrQLenPdf::51                       0                       # What write queue length does an incoming req see
system.mem_ctrl.wrQLenPdf::52                       0                       # What write queue length does an incoming req see
system.mem_ctrl.wrQLenPdf::53                       0                       # What write queue length does an incoming req see
system.mem_ctrl.wrQLenPdf::54                       0                       # What write queue length does an incoming req see
system.mem_ctrl.wrQLenPdf::55                       0                       # What write queue length does an incoming req see
system.mem_ctrl.wrQLenPdf::56                       0                       # What write queue length does an incoming req see
system.mem_ctrl.wrQLenPdf::57                       0                       # What write queue length does an incoming req see
system.mem_ctrl.wrQLenPdf::58                       0                       # What write queue length does an incoming req see
system.mem_ctrl.wrQLenPdf::59                       0                       # What write queue length does an incoming req see
system.mem_ctrl.wrQLenPdf::60                       0                       # What write queue length does an incoming req see
system.mem_ctrl.wrQLenPdf::61                       0                       # What write queue length does an incoming req see
system.mem_ctrl.wrQLenPdf::62                       0                       # What write queue length does an incoming req see
system.mem_ctrl.wrQLenPdf::63                       0                       # What write queue length does an incoming req see
system.mem_ctrl.bytesPerActivate::samples       903610                       # Bytes accessed per row activation
system.mem_ctrl.bytesPerActivate::mean     536.144576                       # Bytes accessed per row activation
system.mem_ctrl.bytesPerActivate::gmean    328.813394                       # Bytes accessed per row activation
system.mem_ctrl.bytesPerActivate::stdev    411.693988                       # Bytes accessed per row activation
system.mem_ctrl.bytesPerActivate::0-127        210033     23.24%     23.24% # Bytes accessed per row activation
system.mem_ctrl.bytesPerActivate::128-255       136593     15.12%     38.36% # Bytes accessed per row activation
system.mem_ctrl.bytesPerActivate::256-383        70694      7.82%     46.18% # Bytes accessed per row activation
system.mem_ctrl.bytesPerActivate::384-511        48447      5.36%     51.55% # Bytes accessed per row activation
system.mem_ctrl.bytesPerActivate::512-639        36949      4.09%     55.63% # Bytes accessed per row activation
system.mem_ctrl.bytesPerActivate::640-767        31422      3.48%     59.11% # Bytes accessed per row activation
system.mem_ctrl.bytesPerActivate::768-895        33031      3.66%     62.77% # Bytes accessed per row activation
system.mem_ctrl.bytesPerActivate::896-1023        24818      2.75%     65.51% # Bytes accessed per row activation
system.mem_ctrl.bytesPerActivate::1024-1151       311623     34.49%    100.00% # Bytes accessed per row activation
system.mem_ctrl.bytesPerActivate::total        903610                       # Bytes accessed per row activation
system.mem_ctrl.rdPerTurnAround::samples         4092                       # Reads before turning the bus around for writes
system.mem_ctrl.rdPerTurnAround::mean     1833.784457                       # Reads before turning the bus around for writes
system.mem_ctrl.rdPerTurnAround::stdev    4349.458915                       # Reads before turning the bus around for writes
system.mem_ctrl.rdPerTurnAround::0-4095          3933     96.11%     96.11% # Reads before turning the bus around for writes
system.mem_ctrl.rdPerTurnAround::4096-8191          118      2.88%     99.00% # Reads before turning the bus around for writes
system.mem_ctrl.rdPerTurnAround::8192-12287            3      0.07%     99.07% # Reads before turning the bus around for writes
system.mem_ctrl.rdPerTurnAround::12288-16383            7      0.17%     99.24% # Reads before turning the bus around for writes
system.mem_ctrl.rdPerTurnAround::16384-20479            8      0.20%     99.44% # Reads before turning the bus around for writes
system.mem_ctrl.rdPerTurnAround::20480-24575            3      0.07%     99.51% # Reads before turning the bus around for writes
system.mem_ctrl.rdPerTurnAround::24576-28671            1      0.02%     99.54% # Reads before turning the bus around for writes
system.mem_ctrl.rdPerTurnAround::32768-36863            2      0.05%     99.58% # Reads before turning the bus around for writes
system.mem_ctrl.rdPerTurnAround::36864-40959            2      0.05%     99.63% # Reads before turning the bus around for writes
system.mem_ctrl.rdPerTurnAround::45056-49151            2      0.05%     99.68% # Reads before turning the bus around for writes
system.mem_ctrl.rdPerTurnAround::57344-61439            5      0.12%     99.80% # Reads before turning the bus around for writes
system.mem_ctrl.rdPerTurnAround::61440-65535            1      0.02%     99.83% # Reads before turning the bus around for writes
system.mem_ctrl.rdPerTurnAround::65536-69631            1      0.02%     99.85% # Reads before turning the bus around for writes
system.mem_ctrl.rdPerTurnAround::69632-73727            1      0.02%     99.88% # Reads before turning the bus around for writes
system.mem_ctrl.rdPerTurnAround::73728-77823            2      0.05%     99.93% # Reads before turning the bus around for writes
system.mem_ctrl.rdPerTurnAround::77824-81919            3      0.07%    100.00% # Reads before turning the bus around for writes
system.mem_ctrl.rdPerTurnAround::total           4092                       # Reads before turning the bus around for writes
system.mem_ctrl.wrPerTurnAround::samples         4092                       # Writes before turning the bus around for reads
system.mem_ctrl.wrPerTurnAround::mean       16.016618                       # Writes before turning the bus around for reads
system.mem_ctrl.wrPerTurnAround::gmean      16.015450                       # Writes before turning the bus around for reads
system.mem_ctrl.wrPerTurnAround::stdev       0.204370                       # Writes before turning the bus around for reads
system.mem_ctrl.wrPerTurnAround::16              4062     99.27%     99.27% # Writes before turning the bus around for reads
system.mem_ctrl.wrPerTurnAround::17                 1      0.02%     99.29% # Writes before turning the bus around for reads
system.mem_ctrl.wrPerTurnAround::18                24      0.59%     99.88% # Writes before turning the bus around for reads
system.mem_ctrl.wrPerTurnAround::19                 2      0.05%     99.93% # Writes before turning the bus around for reads
system.mem_ctrl.wrPerTurnAround::20                 2      0.05%     99.98% # Writes before turning the bus around for reads
system.mem_ctrl.wrPerTurnAround::21                 1      0.02%    100.00% # Writes before turning the bus around for reads
system.mem_ctrl.wrPerTurnAround::total           4092                       # Writes before turning the bus around for reads
system.mem_ctrl.bytesReadDRAM               480271424                       # Total number of bytes read from DRAM
system.mem_ctrl.bytesReadWrQ                  8324096                       # Total number of bytes read from write queue
system.mem_ctrl.bytesWritten                  4194560                       # Total number of bytes written to DRAM
system.mem_ctrl.bytesReadSys                 59328805                       # Total read bytes from the system interface side
system.mem_ctrl.bytesWrittenSys               5972550                       # Total written bytes from the system interface side
system.mem_ctrl.avgRdBW                       1150.73                       # Average DRAM read bandwidth in MiByte/s
system.mem_ctrl.avgWrBW                         10.05                       # Average achieved write bandwidth in MiByte/s
system.mem_ctrl.avgRdBWSys                     142.15                       # Average system read bandwidth in MiByte/s
system.mem_ctrl.avgWrBWSys                      14.31                       # Average system write bandwidth in MiByte/s
system.mem_ctrl.peakBW                       12800.00                       # Theoretical peak bandwidth in MiByte/s
system.mem_ctrl.busUtil                          9.07                       # Data bus utilization in percentage
system.mem_ctrl.busUtilRead                      8.99                       # Data bus utilization in percentage for reads
system.mem_ctrl.busUtilWrite                     0.08                       # Data bus utilization in percentage for writes
system.mem_ctrl.totGap                   417360771000                       # Total gap between requests
system.mem_ctrl.avgGap                       49102.53                       # Average gap between requests
system.mem_ctrl.masterReadBytes::.cpu.inst     51887280                       # Per-master bytes read from memory
system.mem_ctrl.masterReadBytes::.cpu.data      6547414                       # Per-master bytes read from memory
system.mem_ctrl.masterWriteBytes::.cpu.data       432285                       # Per-master bytes write to memory
system.mem_ctrl.masterReadRate::.cpu.inst 124322346.594427078962                       # Per-master bytes read from memory rate (Bytes/sec)
system.mem_ctrl.masterReadRate::.cpu.data 15687657.410548485816                       # Per-master bytes read from memory rate (Bytes/sec)
system.mem_ctrl.masterWriteRate::.cpu.data 1035758.390063458937                       # Per-master bytes write to memory rate (Bytes/sec)
system.mem_ctrl.masterReadAccesses::.cpu.inst      6485910                       # Per-master read serviced memory accesses
system.mem_ctrl.masterReadAccesses::.cpu.data      1148395                       # Per-master read serviced memory accesses
system.mem_ctrl.masterWriteAccesses::.cpu.data       865477                       # Per-master write serviced memory accesses
system.mem_ctrl.masterReadTotalLat::.cpu.inst 141999437750                       # Per-master read total memory access latency
system.mem_ctrl.masterReadTotalLat::.cpu.data  27418147500                       # Per-master read total memory access latency
system.mem_ctrl.masterWriteTotalLat::.cpu.data 10870866797750                       # Per-master write total memory access latency
system.mem_ctrl.masterReadAvgLat::.cpu.inst     21893.53                       # Per-master read average memory access latency
system.mem_ctrl.masterReadAvgLat::.cpu.data     23875.19                       # Per-master read average memory access latency
system.mem_ctrl.masterWriteAvgLat::.cpu.data  12560549.61                       # Per-master write average memory access latency
system.mem_ctrl.pageHitRate                     88.06                       # Row buffer hit rate, read and write combined
system.mem_ctrl.rank1.actEnergy            2851508940                       # Energy for activate commands per rank (pJ)
system.mem_ctrl.rank1.preEnergy            1515612945                       # Energy for precharge commands per rank (pJ)
system.mem_ctrl.rank1.readEnergy          24560172000                       # Energy for read commands per rank (pJ)
system.mem_ctrl.rank1.writeEnergy           124199460                       # Energy for write commands per rank (pJ)
system.mem_ctrl.rank1.refreshEnergy      32945933280.000004                       # Energy for refresh commands per rank (pJ)
system.mem_ctrl.rank1.actBackEnergy      161321818380                       # Energy for active background per rank (pJ)
system.mem_ctrl.rank1.preBackEnergy       24416613600                       # Energy for precharge background per rank (pJ)
system.mem_ctrl.rank1.actPowerDownEnergy            0                       # Energy for active power-down per rank (pJ)
system.mem_ctrl.rank1.prePowerDownEnergy            0                       # Energy for precharge power-down per rank (pJ)
system.mem_ctrl.rank1.selfRefreshEnergy             0                       # Energy for self refresh per rank (pJ)
system.mem_ctrl.rank1.totalEnergy        247735858605                       # Total energy per rank (pJ)
system.mem_ctrl.rank1.averagePower         593.577140                       # Core power per rank (mW)
system.mem_ctrl.rank1.totalIdleTime                 0                       # Total Idle time Per DRAM Rank
system.mem_ctrl.rank1.memoryStateTime::IDLE  61786619250                       # Time in different power states
system.mem_ctrl.rank1.memoryStateTime::REF  13936520000                       # Time in different power states
system.mem_ctrl.rank1.memoryStateTime::SREF            0                       # Time in different power states
system.mem_ctrl.rank1.memoryStateTime::PRE_PDN            0                       # Time in different power states
system.mem_ctrl.rank1.memoryStateTime::ACT 341637708750                       # Time in different power states
system.mem_ctrl.rank1.memoryStateTime::ACT_PDN            0                       # Time in different power states
system.mem_ctrl.rank0.actEnergy            3600273600                       # Energy for activate commands per rank (pJ)
system.mem_ctrl.rank0.preEnergy            1913587005                       # Energy for precharge commands per rank (pJ)
system.mem_ctrl.rank0.readEnergy          29020108740                       # Energy for read commands per rank (pJ)
system.mem_ctrl.rank0.writeEnergy           217919340                       # Energy for write commands per rank (pJ)
system.mem_ctrl.rank0.refreshEnergy      32945933280.000004                       # Energy for refresh commands per rank (pJ)
system.mem_ctrl.rank0.actBackEnergy      179808932760                       # Energy for active background per rank (pJ)
system.mem_ctrl.rank0.preBackEnergy        8848517280                       # Energy for precharge background per rank (pJ)
system.mem_ctrl.rank0.actPowerDownEnergy            0                       # Energy for active power-down per rank (pJ)
system.mem_ctrl.rank0.prePowerDownEnergy            0                       # Energy for precharge power-down per rank (pJ)
system.mem_ctrl.rank0.selfRefreshEnergy             0                       # Energy for self refresh per rank (pJ)
system.mem_ctrl.rank0.totalEnergy        256355272005                       # Total energy per rank (pJ)
system.mem_ctrl.rank0.averagePower         614.229325                       # Core power per rank (mW)
system.mem_ctrl.rank0.totalIdleTime                 0                       # Total Idle time Per DRAM Rank
system.mem_ctrl.rank0.memoryStateTime::IDLE  20713702250                       # Time in different power states
system.mem_ctrl.rank0.memoryStateTime::REF  13936520000                       # Time in different power states
system.mem_ctrl.rank0.memoryStateTime::SREF            0                       # Time in different power states
system.mem_ctrl.rank0.memoryStateTime::PRE_PDN            0                       # Time in different power states
system.mem_ctrl.rank0.memoryStateTime::ACT 382710625750                       # Time in different power states
system.mem_ctrl.rank0.memoryStateTime::ACT_PDN            0                       # Time in different power states
system.mem_ctrl.power_state.pwrStateResidencyTicks::UNDEFINED 417360848000                       # Cumulative time (in ticks) in various power states
system.cache.blocked_cycles::no_mshrs               0                       # number of cycles access was blocked
system.cache.blocked_cycles::no_targets             0                       # number of cycles access was blocked
system.cache.blocked::no_mshrs                      0                       # number of cycles access was blocked
system.cache.blocked::no_targets                    0                       # number of cycles access was blocked
system.cache.avg_blocked_cycles::no_mshrs          nan                       # average number of cycles each access was blocked
system.cache.avg_blocked_cycles::no_targets          nan                       # average number of cycles each access was blocked
system.cache.replacements                           0                       # number of replacements
system.cache.power_state.pwrStateResidencyTicks::UNDEFINED 417360848000                       # Cumulative time (in ticks) in various power states
system.cache.tags.tagsinuse                         0                       # Cycle average of tags in use
system.cache.tags.total_refs                        0                       # Total number of references to valid blocks.
system.cache.tags.sampled_refs                      0                       # Sample count of references to valid blocks.
system.cache.tags.avg_refs                        nan                       # Average number of references to valid blocks.
system.cache.tags.warmup_cycle                      0                       # Cycle when the warmup percentage was hit.
system.cache.tags.tag_accesses                      0                       # Number of tag accesses
system.cache.tags.data_accesses                     0                       # Number of data accesses
system.cache.tags.power_state.pwrStateResidencyTicks::UNDEFINED 417360848000                       # Cumulative time (in ticks) in various power states
system.clk_domain.clock                          1000                       # Clock period in ticks
system.clk_domain.voltage_domain.voltage            1                       # Voltage in Volts
system.cachebus.snoops                              0                       # Total snoops (count)
system.cachebus.snoopTraffic                        0                       # Total snoop traffic (bytes)
system.cachebus.snoop_fanout::samples               0                       # Request fanout histogram
system.cachebus.snoop_fanout::mean                nan                       # Request fanout histogram
system.cachebus.snoop_fanout::stdev               nan                       # Request fanout histogram
system.cachebus.snoop_fanout::underflows            0                       # Request fanout histogram
system.cachebus.snoop_fanout::0                     0                       # Request fanout histogram
system.cachebus.snoop_fanout::overflows             0                       # Request fanout histogram
system.cachebus.snoop_fanout::min_value             0                       # Request fanout histogram
system.cachebus.snoop_fanout::max_value             0                       # Request fanout histogram
system.cachebus.snoop_fanout::total                 0                       # Request fanout histogram
system.cachebus.power_state.pwrStateResidencyTicks::UNDEFINED 417360848000                       # Cumulative time (in ticks) in various power states
system.cpu.dtb.walker.power_state.pwrStateResidencyTicks::UNDEFINED 417360848000                       # Cumulative time (in ticks) in various power states
system.cpu.interrupts.clk_domain.clock          16000                       # Clock period in ticks
system.cpu.itb.walker.power_state.pwrStateResidencyTicks::UNDEFINED 417360848000                       # Cumulative time (in ticks) in various power states
system.cpu.power_state.numTransitions               1                       # Number of power state transitions
system.cpu.power_state.pwrStateResidencyTicks::ON 417360848000                       # Cumulative time (in ticks) in various power states

---------- End Simulation Statistics   ----------
